@<TRIPOS>MOLECULE
*****
 68 73 0 0 0
SMALL
GASTEIGER

@<TRIPOS>ATOM
      1 O          -7.4802    1.0692   -2.8645 O.2     1  UNL1       -0.2753
      2 C          -7.6251    0.5663   -1.7559 C.2     1  UNL1        0.2187
      3 C          -8.9755    0.5841   -1.1229 C.3     1  UNL1        0.0358
      4 C          -9.8349    1.8268   -1.2229 C.3     1  UNL1       -0.0412
      5 C          -9.2410    1.4406    0.0964 C.3     1  UNL1       -0.0412
      6 N          -6.5973   -0.0331   -1.0379 N.am    1  UNL1       -0.3012
      7 C          -6.7952   -0.7453    0.2224 C.3     1  UNL1        0.0150
      8 C          -5.7094   -1.7897    0.4587 C.3     1  UNL1       -0.0328
      9 C          -4.2935   -1.1780    0.4560 C.3     1  UNL1       -0.0227
     10 C          -3.8521   -0.8327    1.8911 C.3     1  UNL1        0.0134
     11 N          -2.4617   -0.4142    1.9643 N.pl3   1  UNL1       -0.3287
     12 C          -1.4126   -1.2838    1.7421 C.ar    1  UNL1        0.1228
     13 N          -0.3224   -0.7223    1.2045 N.ar    1  UNL1       -0.2063
     14 C           0.7437   -1.5363    1.0145 C.ar    1  UNL1        0.2474
     15 N           0.7983   -2.8503    1.2928 N.ar    1  UNL1       -0.2293
     16 C          -0.3127   -3.3615    1.8355 C.ar    1  UNL1        0.0334
     17 C          -1.4430   -2.6190    2.0927 C.ar    1  UNL1       -0.0037
     18 C           2.0043   -0.8429    0.4993 C.2     1  UNL1        0.3629
     19 N           3.0731   -1.5740    0.3644 N.2     1  UNL1       -0.0453
     20 C           4.2655   -1.1106   -0.1153 C.2     1  UNL1        0.1515
     21 C           4.8105    0.1218   -0.1661 C.2     1  UNL1        0.0879
     22 C           4.1294    1.3288    0.3023 C.2     1  UNL1        0.2107
     23 O           4.9213    2.4312    0.6158 O.2     1  UNL1       -0.5005
     24 C           2.8015    1.4733    0.4210 C.2     1  UNL1        0.3176
     25 O           2.2940    2.7066    0.7879 O.2     1  UNL1       -0.4758
     26 N           1.8491    0.5147    0.2624 N.pl3   1  UNL1       -0.1642
     27 C           6.1908    0.3654   -0.7881 C.3     1  UNL1        0.1661
     28 C           6.8713   -0.8039   -1.5149 C.3     1  UNL1        0.1309
     29 O           8.0847   -0.3692   -2.1494 O.3     1  UNL1       -0.4843
     30 C           8.8549    0.3718   -1.2909 C.ar    1  UNL1        0.1621
     31 C          10.1900    0.5581   -1.6444 C.ar    1  UNL1       -0.0163
     32 C          11.0389    1.2825   -0.8043 C.ar    1  UNL1       -0.0581
     33 C          10.5510    1.8221    0.3874 C.ar    1  UNL1       -0.0581
     34 C           9.2101    1.6459    0.7355 C.ar    1  UNL1       -0.0163
     35 C           8.3604    0.9345   -0.1114 C.ar    1  UNL1        0.1630
     36 O           7.0529    0.8222    0.2839 O.3     1  UNL1       -0.4769
     37 C          -4.2010    0.0522   -0.4716 C.3     1  UNL1       -0.0328
     38 C          -5.2424    0.0117   -1.5860 C.3     1  UNL1        0.0150
     39 H          -9.5127   -0.3539   -1.2180 H       1  UNL1        0.0394
     40 H         -10.9021    1.6953   -1.3643 H       1  UNL1        0.0273
     41 H          -9.4241    2.6871   -1.7421 H       1  UNL1        0.0273
     42 H          -9.9051    1.0511    0.8609 H       1  UNL1        0.0273
     43 H          -8.4357    2.0600    0.4803 H       1  UNL1        0.0273
     44 H          -7.7749   -1.2335    0.2252 H       1  UNL1        0.0464
     45 H          -6.7904    0.0002    1.0261 H       1  UNL1        0.0464
     46 H          -5.7671   -2.5371   -0.3449 H       1  UNL1        0.0284
     47 H          -5.9054   -2.3308    1.3918 H       1  UNL1        0.0284
     48 H          -3.6194   -1.9500    0.0614 H       1  UNL1        0.0317
     49 H          -4.0322   -1.6779    2.5663 H       1  UNL1        0.0464
     50 H          -4.4706   -0.0130    2.2778 H       1  UNL1        0.0464
     51 H          -2.2450    0.4816    1.5364 H       1  UNL1        0.1475
     52 H          -0.2676   -4.4191    2.0802 H       1  UNL1        0.0831
     53 H          -2.2986   -3.0802    2.5628 H       1  UNL1        0.0667
     54 H           4.8553   -1.9477   -0.4806 H       1  UNL1        0.1132
     55 H           5.8135    2.0935    0.8405 H       1  UNL1        0.2924
     56 H           3.0855    3.2760    0.8778 H       1  UNL1        0.2957
     57 H           0.9346    0.8711    0.5375 H       1  UNL1        0.3017
     58 H           6.0935    1.1959   -1.5052 H       1  UNL1        0.0822
     59 H           6.2258   -1.2024   -2.3055 H       1  UNL1        0.0738
     60 H           7.1259   -1.6224   -0.8289 H       1  UNL1        0.0738
     61 H          10.5713    0.1299   -2.5668 H       1  UNL1        0.0655
     62 H          12.0834    1.4208   -1.0764 H       1  UNL1        0.0619
     63 H          11.2144    2.3802    1.0442 H       1  UNL1        0.0619
     64 H           8.8308    2.0680    1.6622 H       1  UNL1        0.0655
     65 H          -4.3490    0.9743    0.1070 H       1  UNL1        0.0284
     66 H          -3.1937    0.1119   -0.9038 H       1  UNL1        0.0284
     67 H          -5.1269    0.8873   -2.2350 H       1  UNL1        0.0464
     68 H          -5.1090   -0.8792   -2.2116 H       1  UNL1        0.0464
@<TRIPOS>BOND
     1     1     2    2
     2     2     3    1
     3     3     4    1
     4     4     5    1
     5     2     6   am
     6     6     7    1
     7     7     8    1
     8     8     9    1
     9     9    10    1
    10    10    11    1
    11    11    12    1
    12    12    13   ar
    13    13    14   ar
    14    14    15   ar
    15    15    16   ar
    16    16    17   ar
    17    14    18    1
    18    18    19    2
    19    19    20    1
    20    20    21    2
    21    21    22    1
    22    22    23    1
    23    22    24    2
    24    24    25    1
    25    24    26    1
    26    21    27    1
    27    27    28    1
    28    28    29    1
    29    29    30    1
    30    30    31   ar
    31    31    32   ar
    32    32    33   ar
    33    33    34   ar
    34    34    35   ar
    35    35    36    1
    36     9    37    1
    37    37    38    1
    38     5     3    1
    39    38     6    1
    40    17    12   ar
    41    26    18    1
    42    36    27    1
    43    35    30   ar
    44     3    39    1
    45     4    40    1
    46     4    41    1
    47     5    42    1
    48     5    43    1
    49     7    44    1
    50     7    45    1
    51     8    46    1
    52     8    47    1
    53     9    48    1
    54    10    49    1
    55    10    50    1
    56    11    51    1
    57    16    52    1
    58    17    53    1
    59    20    54    1
    60    23    55    1
    61    25    56    1
    62    26    57    1
    63    27    58    1
    64    28    59    1
    65    28    60    1
    66    31    61    1
    67    32    62    1
    68    33    63    1
    69    34    64    1
    70    37    65    1
    71    37    66    1
    72    38    67    1
    73    38    68    1
