@<TRIPOS>MOLECULE
*****
 68 73 0 0 0
SMALL
GASTEIGER

@<TRIPOS>ATOM
      1 O          -1.3938   32.9180   32.8793 O.2     1  UNL1       -0.2753
      2 C          -0.6014   32.9839   31.9006 C.2     1  UNL1        0.2187
      3 C          -1.0206   33.7699   30.6876 C.3     1  UNL1        0.0358
      4 C          -2.3881   33.4028   30.1353 C.3     1  UNL1       -0.0412
      5 C          -1.1323   32.9576   29.4054 C.3     1  UNL1       -0.0412
      6 N           0.6976   32.3551   31.9768 N.am    1  UNL1       -0.3012
      7 C           1.7724   32.7446   31.0448 C.3     1  UNL1        0.0150
      8 C           3.1483   32.3147   31.5690 C.3     1  UNL1       -0.0328
      9 C           3.2093   30.8031   31.9069 C.3     1  UNL1       -0.0227
     10 C           3.6956   29.9877   30.6894 C.3     1  UNL1        0.0134
     11 N           3.7694   28.5586   31.0032 N.pl3   1  UNL1       -0.3287
     12 C           4.7478   27.9613   31.8728 C.ar    1  UNL1        0.1228
     13 N           4.5873   26.6634   32.2434 N.ar    1  UNL1       -0.2063
     14 C           5.4987   26.0229   33.0218 C.ar    1  UNL1        0.2474
     15 N           6.6094   26.6847   33.4433 N.ar    1  UNL1       -0.2293
     16 C           6.8092   27.9857   33.1139 C.ar    1  UNL1        0.0334
     17 C           5.8873   28.6566   32.3105 C.ar    1  UNL1       -0.0037
     18 C           5.3173   24.5986   33.3377 C.2     1  UNL1        0.3629
     19 N           6.3620   23.8763   33.6095 N.2     1  UNL1       -0.0453
     20 C           6.3793   22.4788   33.9201 C.2     1  UNL1        0.1515
     21 C           5.5231   21.5527   33.4309 C.2     1  UNL1        0.0879
     22 C           4.4742   21.8468   32.4039 C.2     1  UNL1        0.2107
     23 O           4.2263   20.9119   31.3935 O.2     1  UNL1       -0.5005
     24 C           3.7199   22.9593   32.4306 C.2     1  UNL1        0.3176
     25 O           2.6377   23.1084   31.5581 O.2     1  UNL1       -0.4758
     26 N           4.0054   24.0265   33.3284 N.pl3   1  UNL1       -0.1642
     27 C           5.7045   20.1146   33.8829 C.3     1  UNL1        0.1661
     28 C           5.4547   19.9478   35.3977 C.3     1  UNL1        0.1309
     29 O           5.8690   18.6500   35.8273 O.3     1  UNL1       -0.4843
     30 C           7.0479   18.0774   35.3485 C.ar    1  UNL1        0.1621
     31 C           7.6476   17.0091   36.0187 C.ar    1  UNL1       -0.0163
     32 C           8.8591   16.4893   35.5517 C.ar    1  UNL1       -0.0581
     33 C           9.4554   17.0226   34.3991 C.ar    1  UNL1       -0.0581
     34 C           8.8387   18.0687   33.7114 C.ar    1  UNL1       -0.0163
     35 C           7.6366   18.5985   34.1898 C.ar    1  UNL1        0.1630
     36 O           7.0186   19.6638   33.5287 O.3     1  UNL1       -0.4769
     37 C           1.8612   30.2506   32.4461 C.3     1  UNL1       -0.0328
     38 C           0.9662   31.3502   33.0159 C.3     1  UNL1        0.0150
     39 H          -0.7175   34.8316   30.5695 H       1  UNL1        0.0394
     40 H          -2.9220   34.2385   29.6374 H       1  UNL1        0.0273
     41 H          -2.9261   32.5688   30.6428 H       1  UNL1        0.0273
     42 H          -0.9173   33.5323   28.4806 H       1  UNL1        0.0273
     43 H          -0.9296   31.8682   29.4889 H       1  UNL1        0.0273
     44 H           1.7811   33.8503   30.9186 H       1  UNL1        0.0464
     45 H           1.5927   32.2801   30.0522 H       1  UNL1        0.0464
     46 H           3.3592   32.8968   32.4942 H       1  UNL1        0.0284
     47 H           3.9311   32.5951   30.8312 H       1  UNL1        0.0284
     48 H           3.9649   30.6921   32.7174 H       1  UNL1        0.0317
     49 H           4.6888   30.3445   30.3422 H       1  UNL1        0.0464
     50 H           2.9878   30.1342   29.8473 H       1  UNL1        0.0464
     51 H           3.0710   27.9313   30.5469 H       1  UNL1        0.1475
     52 H           7.6975   28.4986   33.4600 H       1  UNL1        0.0831
     53 H           6.0685   29.6875   32.0451 H       1  UNL1        0.0667
     54 H           7.1981   22.1473   34.5476 H       1  UNL1        0.1132
     55 H           4.8336   20.1160   31.2279 H       1  UNL1        0.2924
     56 H           2.3819   22.4185   30.8656 H       1  UNL1        0.2957
     57 H           3.2104   24.6279   33.6394 H       1  UNL1        0.3017
     58 H           4.9680   19.4523   33.3794 H       1  UNL1        0.0822
     59 H           4.3759   20.0850   35.6251 H       1  UNL1        0.0738
     60 H           6.0295   20.7003   35.9776 H       1  UNL1        0.0738
     61 H           7.1970   16.6147   36.9242 H       1  UNL1        0.0655
     62 H           9.3389   15.6774   36.0820 H       1  UNL1        0.0619
     63 H          10.3912   16.6133   34.0371 H       1  UNL1        0.0619
     64 H           9.3010   18.4814   32.8287 H       1  UNL1        0.0655
     65 H           1.2932   29.7493   31.6307 H       1  UNL1        0.0284
     66 H           2.0554   29.4874   33.2324 H       1  UNL1        0.0284
     67 H           0.0192   30.8790   33.3590 H       1  UNL1        0.0464
     68 H           1.4562   31.8317   33.8892 H       1  UNL1        0.0464
@<TRIPOS>BOND
     1     1     2    2
     2     2     3    1
     3     3     4    1
     4     4     5    1
     5     2     6   am
     6     6     7    1
     7     7     8    1
     8     8     9    1
     9     9    10    1
    10    10    11    1
    11    11    12    1
    12    12    13   ar
    13    13    14   ar
    14    14    15   ar
    15    15    16   ar
    16    16    17   ar
    17    14    18    1
    18    18    19    2
    19    19    20    1
    20    20    21    2
    21    21    22    1
    22    22    23    1
    23    22    24    2
    24    24    25    1
    25    24    26    1
    26    21    27    1
    27    27    28    1
    28    28    29    1
    29    29    30    1
    30    30    31   ar
    31    31    32   ar
    32    32    33   ar
    33    33    34   ar
    34    34    35   ar
    35    35    36    1
    36     9    37    1
    37    37    38    1
    38     5     3    1
    39    38     6    1
    40    17    12   ar
    41    26    18    1
    42    36    27    1
    43    35    30   ar
    44     3    39    1
    45     4    40    1
    46     4    41    1
    47     5    42    1
    48     5    43    1
    49     7    44    1
    50     7    45    1
    51     8    46    1
    52     8    47    1
    53     9    48    1
    54    10    49    1
    55    10    50    1
    56    11    51    1
    57    16    52    1
    58    17    53    1
    59    20    54    1
    60    23    55    1
    61    25    56    1
    62    26    57    1
    63    27    58    1
    64    28    59    1
    65    28    60    1
    66    31    61    1
    67    32    62    1
    68    33    63    1
    69    34    64    1
    70    37    65    1
    71    37    66    1
    72    38    67    1
    73    38    68    1
