@<TRIPOS>MOLECULE
*****
 59 64 0 0 0
SMALL
GASTEIGER

@<TRIPOS>ATOM
      1 O          -3.7353   25.9851   27.8119 O.2     1  UNL1       -0.2752
      2 C          -2.7131   25.5313   28.3952 C.2     1  UNL1        0.2218
      3 N          -1.5598   25.1065   27.6399 N.am    1  UNL1       -0.2416
      4 C          -0.2197   25.3117   28.2141 C.3     1  UNL1        0.0266
      5 C          -0.2034   25.1054   29.7447 C.3     1  UNL1       -0.0087
      6 C           1.1742   25.4379   30.3604 C.3     1  UNL1        0.0161
      7 N           1.5476   26.8478   30.2055 N.pl3   1  UNL1       -0.3131
      8 C           2.7825   27.3560   30.7223 C.ar    1  UNL1        0.2169
      9 N           3.1552   28.6349   30.4466 N.ar    1  UNL1       -0.2228
     10 C           4.3225   29.1395   30.9212 C.ar    1  UNL1        0.0344
     11 C           5.1576   28.3456   31.7058 C.ar    1  UNL1       -0.0030
     12 C           4.7666   27.0294   31.9875 C.ar    1  UNL1        0.1341
     13 N           5.5818   26.1818   32.8182 N.pl3   1  UNL1       -0.2335
     14 C           5.5160   24.7606   32.9525 C.ar    1  UNL1        0.0610
     15 C           4.7444   23.8399   32.2339 C.ar    1  UNL1       -0.0306
     16 C           4.8783   22.4700   32.5413 C.ar    1  UNL1       -0.0160
     17 C           4.1145   21.5099   31.8604 C.ar    1  UNL1       -0.0540
     18 C           4.2513   20.1543   32.1709 C.ar    1  UNL1       -0.0612
     19 C           5.1491   19.7439   33.1599 C.ar    1  UNL1       -0.0612
     20 C           5.9241   20.6848   33.8454 C.ar    1  UNL1       -0.0540
     21 C           5.7997   22.0505   33.5479 C.ar    1  UNL1       -0.0160
     22 C           6.5790   23.0070   34.2297 C.ar    1  UNL1       -0.0312
     23 C           6.4075   24.3491   33.8993 C.ar    1  UNL1        0.0529
     24 N           7.1073   25.4580   34.4331 N.pl3   1  UNL1       -0.2942
     25 C           6.6075   26.6600   33.7617 C.3     1  UNL1        0.2779
     26 O           6.0250   27.5092   34.7047 O.3     1  UNL1       -0.3515
     27 N           3.5859   26.5711   31.4904 N.ar    1  UNL1       -0.1991
     28 C          -1.3413   25.8848   30.4293 C.3     1  UNL1       -0.0391
     29 C          -2.6984   25.4381   29.8900 C.3     1  UNL1        0.0249
     30 C          -1.6762   24.7190   26.2533 C.2     1  UNL1        0.2249
     31 O          -0.6754   24.8070   25.4876 O.2     1  UNL1       -0.2749
     32 C          -2.9762   24.2277   25.6815 C.3     1  UNL1        0.0362
     33 C          -3.5416   22.9867   26.3612 C.3     1  UNL1       -0.0412
     34 C          -2.8968   22.8729   24.9928 C.3     1  UNL1       -0.0412
     35 H           0.1171   26.3340   27.9482 H       1  UNL1        0.0473
     36 H           0.4988   24.5923   27.7641 H       1  UNL1        0.0473
     37 H          -0.3802   24.0230   29.9326 H       1  UNL1        0.0331
     38 H           1.1569   25.1827   31.4431 H       1  UNL1        0.0465
     39 H           1.9489   24.8010   29.8790 H       1  UNL1        0.0465
     40 H           0.9355   27.5138   29.6855 H       1  UNL1        0.1489
     41 H           4.6031   30.1580   30.6877 H       1  UNL1        0.0832
     42 H           6.0893   28.7506   32.0801 H       1  UNL1        0.0667
     43 H           4.0699   24.1580   31.4531 H       1  UNL1        0.0643
     44 H           3.4123   21.8071   31.0913 H       1  UNL1        0.0624
     45 H           3.6566   19.4181   31.6451 H       1  UNL1        0.0618
     46 H           5.2478   18.6915   33.3937 H       1  UNL1        0.0618
     47 H           6.6198   20.3459   34.6039 H       1  UNL1        0.0624
     48 H           7.2978   22.7185   34.9871 H       1  UNL1        0.0643
     49 H           7.8596   25.4228   35.1561 H       1  UNL1        0.1506
     50 H           6.6817   28.2403   34.8234 H       1  UNL1        0.2139
     51 H          -1.2283   26.9755   30.2620 H       1  UNL1        0.0273
     52 H          -1.3166   25.7021   31.5236 H       1  UNL1        0.0273
     53 H          -3.4982   26.0757   30.3273 H       1  UNL1        0.0359
     54 H          -2.8915   24.3832   30.1842 H       1  UNL1        0.0359
     55 H          -3.7176   24.9402   25.2614 H       1  UNL1        0.0394
     56 H          -4.6515   22.9218   26.3462 H       1  UNL1        0.0273
     57 H          -2.9303   22.5627   27.1883 H       1  UNL1        0.0273
     58 H          -3.6246   22.7342   24.1638 H       1  UNL1        0.0273
     59 H          -1.9038   22.3721   25.0085 H       1  UNL1        0.0273
@<TRIPOS>BOND
     1     1     2    2
     2     2     3   am
     3     2    29    1
     4     3     4    1
     5     3    30   am
     6     4     5    1
     7     4    35    1
     8     4    36    1
     9     5    28    1
    10     5     6    1
    11     5    37    1
    12     6     7    1
    13     6    38    1
    14     6    39    1
    15     7     8    1
    16     7    40    1
    17     8     9   ar
    18     8    27   ar
    19     9    10   ar
    20    10    11   ar
    21    10    41    1
    22    11    12   ar
    23    11    42    1
    24    12    13    1
    25    12    27   ar
    26    13    14    1
    27    13    25    1
    28    14    15   ar
    29    14    23   ar
    30    15    16   ar
    31    15    43    1
    32    16    17   ar
    33    16    21   ar
    34    17    18   ar
    35    17    44    1
    36    18    19   ar
    37    18    45    1
    38    19    20   ar
    39    19    46    1
    40    20    21   ar
    41    20    47    1
    42    21    22   ar
    43    22    23   ar
    44    22    48    1
    45    23    24    1
    46    24    25    1
    47    24    49    1
    48    25    26    1
    49    26    50    1
    50    28    29    1
    51    28    51    1
    52    28    52    1
    53    29    53    1
    54    29    54    1
    55    30    31    2
    56    30    32    1
    57    32    33    1
    58    32    34    1
    59    32    55    1
    60    33    34    1
    61    33    56    1
    62    33    57    1
    63    34    58    1
    64    34    59    1
