8 ENGINEERED: YES
     RDKit          3D

 35 40  0  0  0  0  0  0  0  0999 V2000
    8.2943   24.2229   36.5720 C   0  0  0  0  0  0  0  0  0  0  0  0
    7.3222   24.4182   35.6443 C   0  0  0  0  0  0  0  0  0  0  0  0
    7.3583   23.6915   34.3782 C   0  0  0  0  0  0  0  0  0  0  0  0
    8.3920   22.8115   34.1612 C   0  0  0  0  0  0  0  0  0  0  0  0
    9.3602   22.6496   35.1093 C   0  0  0  0  0  0  0  0  0  0  0  0
    9.2994   23.3370   36.2929 C   0  0  0  0  0  0  0  0  0  0  0  0
    6.3673   23.9018   33.4471 C   0  0  0  0  0  0  0  0  0  0  0  0
    5.3269   24.7689   33.6163 C   0  0  0  0  0  0  0  0  0  0  0  0
    5.3456   25.4186   34.8411 C   0  0  0  0  0  0  0  0  0  0  0  0
    6.2996   25.2766   35.8327 C   0  0  0  0  0  0  0  0  0  0  0  0
    4.3887   24.9542   32.6990 N   0  0  0  0  0  0  0  0  0  0  0  0
    4.0202   26.1029   32.1529 C   0  0  0  0  0  0  0  0  0  0  0  0
    3.0356   25.8108   31.3188 N   0  0  0  0  0  0  0  0  0  0  0  0
    2.8579   24.4883   31.3549 N   0  0  0  0  0  0  0  0  0  0  0  0
    3.7069   23.9982   32.2009 C   0  0  0  0  0  0  0  0  0  0  0  0
    3.8417   22.7960   32.5262 O   0  0  0  0  0  0  0  0  0  0  0  0
    1.8161   24.0630   30.4378 C   0  0  0  0  0  0  0  0  0  0  0  0
    0.6141   23.4922   31.0803 C   0  0  0  0  0  0  0  0  0  0  0  0
   -0.4631   23.5444   30.0584 C   0  0  0  0  0  0  0  0  0  0  0  0
   -0.1517   22.6465   29.0423 O   0  0  0  0  0  0  0  0  0  0  0  0
    1.1187   22.8094   28.4325 C   0  0  0  0  0  0  0  0  0  0  0  0
    2.2533   23.0929   29.3929 C   0  0  0  0  0  0  0  0  0  0  0  0
    4.4418   27.5101   32.3471 C   0  0  0  0  0  0  0  0  0  0  0  0
    5.7049   27.8254   32.7167 C   0  0  0  0  0  0  0  0  0  0  0  0
    6.0522   29.1262   32.8652 C   0  0  0  0  0  0  0  0  0  0  0  0
    5.2130   30.0930   32.6820 N   0  0  0  0  0  0  0  0  0  0  0  0
    3.9623   29.8536   32.3061 C   0  0  0  0  0  0  0  0  0  0  0  0
    3.5712   28.5476   32.1324 C   0  0  0  0  0  0  0  0  0  0  0  0
    3.1554   30.8974   32.1358 N   0  0  0  0  0  0  0  0  0  0  0  0
    1.8656   30.8684   31.5408 C   0  0  0  0  0  0  0  0  0  0  0  0
    1.1371   32.1330   31.8922 C   0  0  0  0  0  0  0  0  0  0  0  0
   -0.2036   32.1817   31.2075 C   0  0  0  0  0  0  0  0  0  0  0  0
   -0.1100   32.1148   29.7121 C   0  0  0  0  0  0  0  0  0  0  0  0
    0.6668   30.8845   29.3395 C   0  0  0  0  0  0  0  0  0  0  0  0
    2.0021   30.7861   30.0420 C   0  0  0  0  0  0  0  0  0  0  0  0
  1  2  1  0
  1  6  1  0
  2  3  1  0
  2 10  1  0
  3  4  1  0
  3  7  1  0
  4  5  1  0
  5  6  1  0
  7  8  1  0
  8  9  1  0
  8 11  1  0
  9 10  1  0
 11 12  1  0
 11 15  1  0
 12 13  1  0
 12 23  1  0
 13 14  1  0
 14 15  1  0
 17 14  1  0
 15 16  1  0
 17 18  1  0
 17 22  1  0
 18 19  1  0
 19 20  1  0
 20 21  1  0
 21 22  1  0
 23 24  1  0
 23 28  1  0
 24 25  1  0
 25 26  1  0
 26 27  1  0
 27 28  1  0
 27 29  1  0
 30 29  1  0
 30 31  1  0
 30 35  1  0
 31 32  1  0
 32 33  1  0
 33 34  1  0
 34 35  1  0
M  END
