
     RDKit          3D

 35 40  0  0  0  0  0  0  0  0999 V2000
  -25.0547    4.6580  -30.4320 C   0  0  0  0  0  0  0  0  0  0  0  0
  -24.0773    5.7311  -30.7543 C   0  0  0  0  0  0  0  0  0  0  0  0
  -23.3284    5.4983  -32.0396 C   0  0  0  0  0  0  0  0  0  0  0  0
  -22.6981    4.1303  -32.1020 C   0  0  0  0  0  0  0  0  0  0  0  0
  -23.6570    3.0331  -31.7065 C   0  0  0  0  0  0  0  0  0  0  0  0
  -24.3706    3.3229  -30.4222 C   0  0  0  0  0  0  0  0  0  0  0  0
  -22.1853    6.5017  -32.0355 C   0  0  0  0  0  0  0  0  0  0  0  0
  -22.8204    7.8663  -32.1968 C   0  0  0  0  0  0  0  0  0  0  0  0
  -23.7489    8.1940  -31.0594 C   0  0  0  0  0  0  0  0  0  0  0  0
  -24.7522    7.0849  -30.8651 C   0  0  0  0  0  0  0  0  0  0  0  0
  -21.8191    8.7952  -32.4916 N   0  0  0  0  0  0  0  0  0  0  0  0
  -21.3482    9.5997  -31.4082 C   0  0  0  0  0  0  0  0  0  0  0  0
  -20.3112   10.3761  -32.1113 N   0  0  0  0  0  0  0  0  0  0  0  0
  -19.7592    9.4767  -33.0227 N   0  0  0  0  0  0  0  0  0  0  0  0
  -20.6071    8.3220  -33.1036 C   0  0  0  0  0  0  0  0  0  0  0  0
  -20.8118    7.8358  -34.3733 O   0  0  0  0  0  0  0  0  0  0  0  0
  -19.6568   10.1256  -34.2962 C   0  0  2  0  0  0  0  0  0  0  0  0
  -19.4012    9.2503  -35.4708 C   0  0  0  0  0  0  0  0  0  0  0  0
  -18.3654    8.2150  -35.0607 C   0  0  0  0  0  0  0  0  0  0  0  0
  -17.4597    8.8673  -34.2230 O   0  0  0  0  0  0  0  0  0  0  0  0
  -17.2509   10.1944  -34.5533 C   0  0  0  0  0  0  0  0  0  0  0  0
  -18.4468   11.0802  -34.2151 C   0  0  0  0  0  0  0  0  0  0  0  0
  -22.4051   10.5182  -30.8704 C   0  0  0  0  0  0  0  0  0  0  0  0
  -23.7880   10.0170  -31.2122 C   0  0  0  0  0  0  0  0  0  0  0  0
  -24.7165   11.2207  -30.9986 C   0  0  0  0  0  0  0  0  0  0  0  0
  -24.5405   12.0666  -32.1641 N   0  0  0  0  0  0  0  0  0  0  0  0
  -23.1668   12.3787  -32.3964 C   0  0  0  0  0  0  0  0  0  0  0  0
  -22.2202   11.9271  -31.3193 C   0  0  0  0  0  0  0  0  0  0  0  0
  -22.9077   13.7735  -32.6287 N   0  0  0  0  0  0  0  0  0  0  0  0
  -21.5280   14.1457  -32.6193 C   0  0  1  0  0  0  0  0  0  0  0  0
  -21.1234   15.1426  -33.6545 C   0  0  0  0  0  0  0  0  0  0  0  0
  -20.1178   16.1009  -33.0625 C   0  0  0  0  0  0  0  0  0  0  0  0
  -20.8740   16.9945  -32.0844 C   0  0  0  0  0  0  0  0  0  0  0  0
  -21.4847   16.0989  -31.0287 C   0  0  0  0  0  0  0  0  0  0  0  0
  -21.1536   14.6522  -31.2506 C   0  0  0  0  0  0  0  0  0  0  0  0
  2  1  1  0
  3  2  1  0
  4  3  1  0
  5  4  1  0
  6  1  1  0
  6  5  1  0
  7  3  1  0
  8  7  1  0
  9  8  1  0
 10  9  1  0
 10  2  1  0
 11  8  1  0
 12 11  1  0
 13 12  1  0
 14 13  1  0
 15 14  1  0
 15 11  1  0
 16 15  1  0
 17 14  1  1
 18 17  1  0
 19 18  1  0
 20 19  1  0
 21 20  1  0
 22 21  1  0
 22 17  1  0
 23 12  1  0
 24 23  1  0
 25 24  1  0
 26 25  1  0
 27 26  1  0
 28 27  1  0
 28 23  1  0
 29 27  1  0
 30 29  1  1
 31 30  1  0
 32 31  1  0
 33 32  1  0
 34 33  1  0
 35 34  1  0
 35 30  1  0
M  END
$$$$
