
     RDKit          3D

 35 40  0  0  0  0  0  0  0  0999 V2000
   -3.9171    1.6023    5.8007 O   0  0  0  0  0  0  0  0  0  0  0  0
   -2.6910    1.5646    5.4874 C   0  0  0  0  0  0  0  0  0  0  0  0
   -1.7698    0.9277    6.2657 N   0  0  0  0  0  0  0  0  0  0  0  0
   -0.6103    1.0793    5.6577 N   0  0  0  0  0  0  0  0  0  0  0  0
   -0.7805    1.7903    4.5255 C   0  0  0  0  0  0  0  0  0  0  0  0
   -2.0861    2.0985    4.4126 N   0  0  0  0  0  0  0  0  0  0  0  0
   -2.7117    2.8312    3.3840 C   0  0  0  0  0  0  0  0  0  0  0  0
   -2.2801    4.1449    3.1887 C   0  0  0  0  0  0  0  0  0  0  0  0
   -2.8590    4.9193    2.1889 C   0  0  0  0  0  0  0  0  0  0  0  0
   -3.8658    4.3922    1.3823 C   0  0  0  0  0  0  0  0  0  0  0  0
   -4.4273    5.1862    0.3911 C   0  0  0  0  0  0  0  0  0  0  0  0
   -5.4301    4.6649   -0.4142 C   0  0  0  0  0  0  0  0  0  0  0  0
   -5.8764    3.3591   -0.2386 C   0  0  0  0  0  0  0  0  0  0  0  0
   -5.3098    2.5601    0.7604 C   0  0  0  0  0  0  0  0  0  0  0  0
   -4.3007    3.0918    1.5673 C   0  0  0  0  0  0  0  0  0  0  0  0
   -3.7105    2.3311    2.5723 C   0  0  0  0  0  0  0  0  0  0  0  0
    0.2999    2.1413    3.6094 C   0  0  0  0  0  0  0  0  0  0  0  0
    1.5352    2.4736    4.1036 C   0  0  0  0  0  0  0  0  0  0  0  0
    2.5445    2.8038    3.1983 C   0  0  0  0  0  0  0  0  0  0  0  0
    2.3119    2.7968    1.8636 N   0  0  0  0  0  0  0  0  0  0  0  0
    1.1128    2.4760    1.3457 C   0  0  0  0  0  0  0  0  0  0  0  0
    0.8905    2.4751   -0.0578 N   0  0  0  0  0  0  0  0  0  0  0  0
    0.8245    1.2398   -0.7779 C   0  0  2  0  0  0  0  0  0  0  0  0
    1.4854    1.4409   -2.1349 C   0  0  0  0  0  0  0  0  0  0  0  0
    1.6832    0.1595   -2.8847 C   0  0  0  0  0  0  0  0  0  0  0  0
    0.7921   -0.8840   -2.2823 C   0  0  0  0  0  0  0  0  0  0  0  0
   -0.5898   -0.3680   -2.0071 C   0  0  0  0  0  0  0  0  0  0  0  0
   -0.5931    0.7637   -1.0078 C   0  0  0  0  0  0  0  0  0  0  0  0
    0.1173    2.1501    2.2443 C   0  0  0  0  0  0  0  0  0  0  0  0
   -2.0467    0.2262    7.5192 C   0  0  1  0  0  0  0  0  0  0  0  0
   -1.6098   -1.1959    7.4167 C   0  0  0  0  0  0  0  0  0  0  0  0
   -0.9925   -1.7393    8.6742 C   0  0  0  0  0  0  0  0  0  0  0  0
   -0.1263   -0.8407    9.2802 O   0  0  0  0  0  0  0  0  0  0  0  0
   -0.9030    0.2090    9.7700 C   0  0  0  0  0  0  0  0  0  0  0  0
   -1.3645    1.0134    8.5883 C   0  0  0  0  0  0  0  0  0  0  0  0
  1  2  2  0
  2  3  1  0
  3  4  1  0
  4  5  2  0
  5  6  1  0
  6  7  1  0
  7  8  2  0
  8  9  1  0
  9 10  2  0
 10 11  1  0
 11 12  2  0
 12 13  1  0
 13 14  2  0
 14 15  1  0
 15 16  2  0
  5 17  1  0
 17 18  2  0
 18 19  1  0
 19 20  2  0
 20 21  1  0
 21 22  1  0
 23 22  1  6
 23 24  1  0
 24 25  1  1
 25 26  1  1
 26 27  1  1
 27 28  1  1
 21 29  2  0
 30  3  1  6
 30 31  1  0
 31 32  1  6
 32 33  1  1
 34 33  1  1
 35 34  1  6
  6  2  1  0
 16  7  1  0
 15 10  1  0
 29 17  1  0
 28 23  1  1
 35 30  1  0
M  END
$$$$
