
     RDKit          3D

 66 71  0  0  0  0  0  0  0  0999 V2000
   -3.7684   -1.2168   -0.1720 O   0  0  0  0  0  0  0  0  0  0  0  0
   -2.5728   -0.9829   -0.2805 C   0  0  0  0  0  0  0  0  0  0  0  0
   -1.5714   -1.9470   -0.4647 N   0  0  0  0  0  0  0  0  0  0  0  0
   -0.3386   -1.3565   -0.5311 N   0  0  0  0  0  0  0  0  0  0  0  0
   -0.5844   -0.0823   -0.4019 C   0  0  0  0  0  0  0  0  0  0  0  0
   -1.9048    0.2329   -0.2117 N   0  0  0  0  0  0  0  0  0  0  0  0
   -2.5195    1.4652    0.1279 C   0  0  0  0  0  0  0  0  0  0  0  0
   -1.8398    2.4514    0.8532 C   0  0  0  0  0  0  0  0  0  0  0  0
   -2.4541    3.6669    1.1756 C   0  0  0  0  0  0  0  0  0  0  0  0
   -3.7744    3.9271    0.7905 C   0  0  0  0  0  0  0  0  0  0  0  0
   -4.4043    5.1428    1.1025 C   0  0  0  0  0  0  0  0  0  0  0  0
   -5.7231    5.3811    0.7139 C   0  0  0  0  0  0  0  0  0  0  0  0
   -6.4273    4.4073    0.0122 C   0  0  0  0  0  0  0  0  0  0  0  0
   -5.8136    3.1937   -0.3026 C   0  0  0  0  0  0  0  0  0  0  0  0
   -4.4861    2.9389    0.0791 C   0  0  0  0  0  0  0  0  0  0  0  0
   -3.8513    1.7220   -0.2348 C   0  0  0  0  0  0  0  0  0  0  0  0
    0.4928    0.9064   -0.5418 C   0  0  0  0  0  0  0  0  0  0  0  0
    0.3804    1.9560   -1.4467 C   0  0  0  0  0  0  0  0  0  0  0  0
    1.4416    2.8323   -1.5253 C   0  0  0  0  0  0  0  0  0  0  0  0
    2.5699    2.7106   -0.7918 N   0  0  0  0  0  0  0  0  0  0  0  0
    2.6791    1.6607    0.0455 C   0  0  0  0  0  0  0  0  0  0  0  0
    3.8643    1.6030    0.7680 N   0  0  0  0  0  0  0  0  0  0  0  0
    4.6212    0.3486    0.7295 C   0  0  0  0  0  0  0  0  0  0  0  0
    5.7557    0.4370    1.7570 C   0  0  0  0  0  0  0  0  0  0  0  0
    6.5536   -0.8662    1.8415 C   0  0  0  0  0  0  0  0  0  0  0  0
    6.5847   -1.6485    0.5278 C   0  0  0  0  0  0  0  0  0  0  0  0
    6.4868   -0.7257   -0.6785 C   0  0  0  0  0  0  0  0  0  0  0  0
    5.1829    0.0777   -0.6802 C   0  0  0  0  0  0  0  0  0  0  0  0
    1.6598    0.7369    0.2008 C   0  0  0  0  0  0  0  0  0  0  0  0
   -1.7390   -3.3881   -0.5703 C   0  0  0  0  0  0  0  0  0  0  0  0
   -2.2930   -3.9988    0.7241 C   0  0  0  0  0  0  0  0  0  0  0  0
   -3.1133   -5.2520    0.4478 C   0  0  0  0  0  0  0  0  0  0  0  0
   -2.5441   -5.9736   -0.6387 O   0  0  0  0  0  0  0  0  0  0  0  0
   -2.6913   -5.2971   -1.8882 C   0  0  0  0  0  0  0  0  0  0  0  0
   -2.5974   -3.7785   -1.7715 C   0  0  0  0  0  0  0  0  0  0  0  0
   -0.8341    2.2908    1.2310 H   0  0  0  0  0  0  0  0  0  0  0  0
   -1.8913    4.4049    1.7443 H   0  0  0  0  0  0  0  0  0  0  0  0
   -3.8709    5.9145    1.6533 H   0  0  0  0  0  0  0  0  0  0  0  0
   -6.2006    6.3254    0.9617 H   0  0  0  0  0  0  0  0  0  0  0  0
   -7.4557    4.5894   -0.2888 H   0  0  0  0  0  0  0  0  0  0  0  0
   -6.3825    2.4431   -0.8479 H   0  0  0  0  0  0  0  0  0  0  0  0
   -4.4150    0.9815   -0.7994 H   0  0  0  0  0  0  0  0  0  0  0  0
   -0.4970    2.0935   -2.0678 H   0  0  0  0  0  0  0  0  0  0  0  0
    1.4191    3.6834   -2.2003 H   0  0  0  0  0  0  0  0  0  0  0  0
    4.4126    2.3965    0.4357 H   0  0  0  0  0  0  0  0  0  0  0  0
    3.9795   -0.4898    1.0295 H   0  0  0  0  0  0  0  0  0  0  0  0
    6.4326    1.2584    1.4857 H   0  0  0  0  0  0  0  0  0  0  0  0
    5.3622    0.6875    2.7499 H   0  0  0  0  0  0  0  0  0  0  0  0
    7.5769   -0.6310    2.1585 H   0  0  0  0  0  0  0  0  0  0  0  0
    6.1328   -1.5100    2.6236 H   0  0  0  0  0  0  0  0  0  0  0  0
    7.5017   -2.2467    0.4779 H   0  0  0  0  0  0  0  0  0  0  0  0
    5.7478   -2.3581    0.5070 H   0  0  0  0  0  0  0  0  0  0  0  0
    7.3382   -0.0333   -0.6705 H   0  0  0  0  0  0  0  0  0  0  0  0
    6.5637   -1.3032   -1.6068 H   0  0  0  0  0  0  0  0  0  0  0  0
    5.3564    1.0132   -1.2276 H   0  0  0  0  0  0  0  0  0  0  0  0
    4.4245   -0.4676   -1.2569 H   0  0  0  0  0  0  0  0  0  0  0  0
    1.7522   -0.0859    0.9000 H   0  0  0  0  0  0  0  0  0  0  0  0
   -0.7352   -3.8047   -0.7347 H   0  0  0  0  0  0  0  0  0  0  0  0
   -2.9015   -3.2936    1.3012 H   0  0  0  0  0  0  0  0  0  0  0  0
   -1.4416   -4.2540    1.3684 H   0  0  0  0  0  0  0  0  0  0  0  0
   -3.1160   -5.8998    1.3303 H   0  0  0  0  0  0  0  0  0  0  0  0
   -4.1578   -5.0074    0.2206 H   0  0  0  0  0  0  0  0  0  0  0  0
   -3.6456   -5.5885   -2.3399 H   0  0  0  0  0  0  0  0  0  0  0  0
   -1.8982   -5.6709   -2.5437 H   0  0  0  0  0  0  0  0  0  0  0  0
   -2.2084   -3.3512   -2.7036 H   0  0  0  0  0  0  0  0  0  0  0  0
   -3.6096   -3.3708   -1.6554 H   0  0  0  0  0  0  0  0  0  0  0  0
  1  2  2  0
  2  3  1  0
  3  4  1  0
  4  5  2  0
  5  6  1  0
  6  7  1  0
  7  8  2  0
  8  9  1  0
  9 10  2  0
 10 11  1  0
 11 12  2  0
 12 13  1  0
 13 14  2  0
 14 15  1  0
 15 16  2  0
  5 17  1  0
 17 18  2  0
 18 19  1  0
 19 20  2  0
 20 21  1  0
 21 22  1  0
 22 23  1  0
 23 24  1  0
 24 25  1  0
 25 26  1  0
 26 27  1  0
 27 28  1  0
 21 29  2  0
  3 30  1  0
 30 31  1  0
 31 32  1  0
 32 33  1  0
 33 34  1  0
 34 35  1  0
  6  2  1  0
 16  7  1  0
 15 10  1  0
 29 17  1  0
 28 23  1  0
 35 30  1  0
  8 36  1  0
  9 37  1  0
 11 38  1  0
 12 39  1  0
 13 40  1  0
 14 41  1  0
 16 42  1  0
 18 43  1  0
 19 44  1  0
 22 45  1  0
 23 46  1  0
 24 47  1  0
 24 48  1  0
 25 49  1  0
 25 50  1  0
 26 51  1  0
 26 52  1  0
 27 53  1  0
 27 54  1  0
 28 55  1  0
 28 56  1  0
 29 57  1  0
 30 58  1  0
 31 59  1  0
 31 60  1  0
 32 61  1  0
 32 62  1  0
 34 63  1  0
 34 64  1  0
 35 65  1  0
 35 66  1  0
M  END
$$$$
