3oy1
     RDKit          3D

 35 40  0  0  0  0  0  0  0  0999 V2000
  -16.9222   11.3582  -36.6061 C   0  0  0  0  0  0  0  0  0  0  0  0
  -17.9991   11.2848  -35.7680 C   0  0  0  0  0  0  0  0  0  0  0  0
  -18.0006   11.9533  -34.5640 C   0  0  0  0  0  0  0  0  0  0  0  0
  -16.9260   12.7148  -34.1620 C   0  0  0  0  0  0  0  0  0  0  0  0
  -15.8375   12.7890  -35.0090 C   0  0  0  0  0  0  0  0  0  0  0  0
  -15.8287   12.1220  -36.2168 C   0  0  0  0  0  0  0  0  0  0  0  0
  -19.1035   11.8646  -33.7302 C   0  0  0  0  0  0  0  0  0  0  0  0
  -20.2219   11.1100  -34.0805 C   0  0  0  0  0  0  0  0  0  0  0  0
  -20.2227   10.4448  -35.2764 C   0  0  0  0  0  0  0  0  0  0  0  0
  -19.1205   10.5359  -36.1053 C   0  0  0  0  0  0  0  0  0  0  0  0
  -21.3028   11.0841  -33.1534 N   0  0  0  0  0  0  0  0  0  0  0  0
  -21.8826   10.0046  -32.5981 C   0  0  0  0  0  0  0  0  0  0  0  0
  -22.8567   10.4222  -31.7866 N   0  0  0  0  0  0  0  0  0  0  0  0
  -22.9240   11.7595  -31.8018 N   0  0  0  0  0  0  0  0  0  0  0  0
  -21.9582   12.1465  -32.6499 C   0  0  0  0  0  0  0  0  0  0  0  0
  -21.6936   13.3209  -32.9404 O   0  0  0  0  0  0  0  0  0  0  0  0
  -23.8692   12.5234  -31.0339 C   0  0  2  0  0  0  0  0  0  0  0  0
  -23.6143   12.5728  -29.5700 C   0  0  0  0  0  0  0  0  0  0  0  0
  -24.2495   11.3547  -28.9402 C   0  0  0  0  0  0  0  0  0  0  0  0
  -25.6201   11.6033  -28.8479 O   0  0  0  0  0  0  0  0  0  0  0  0
  -26.0871   12.2490  -29.9867 C   0  0  0  0  0  0  0  0  0  0  0  0
  -25.2553   11.9144  -31.2081 C   0  0  0  0  0  0  0  0  0  0  0  0
  -21.5370    8.6049  -32.8179 C   0  0  0  0  0  0  0  0  0  0  0  0
  -20.2400    8.3006  -33.2315 C   0  0  0  0  0  0  0  0  0  0  0  0
  -19.8393    6.9939  -33.4601 C   0  0  0  0  0  0  0  0  0  0  0  0
  -20.7447    5.9994  -33.2716 N   0  0  0  0  0  0  0  0  0  0  0  0
  -21.9944    6.2874  -32.8735 C   0  0  0  0  0  0  0  0  0  0  0  0
  -22.4324    7.5687  -32.6359 C   0  0  0  0  0  0  0  0  0  0  0  0
  -22.9023    5.2106  -32.6911 N   0  0  0  0  0  0  0  0  0  0  0  0
  -24.1426    5.4284  -31.9546 C   0  0  1  0  0  0  0  0  0  0  0  0
  -25.0954    4.2553  -32.1572 C   0  0  0  0  0  0  0  0  0  0  0  0
  -26.4490    4.7096  -31.6261 C   0  0  0  0  0  0  0  0  0  0  0  0
  -26.3179    4.9057  -30.1334 C   0  0  0  0  0  0  0  0  0  0  0  0
  -24.8942    4.7757  -29.6625 C   0  0  0  0  0  0  0  0  0  0  0  0
  -23.9021    5.5497  -30.4661 C   0  0  0  0  0  0  0  0  0  0  0  0
  1  2  2  0
  2  3  1  0
  3  4  2  0
  4  5  1  0
  1  6  1  0
  5  6  2  0
  3  7  1  0
  7  8  2  0
  8  9  1  0
  2 10  1  0
  9 10  2  0
  8 11  1  0
 11 12  1  0
 12 13  2  0
 13 14  1  0
 11 15  1  0
 14 15  1  0
 15 16  2  0
 17 14  1  6
 17 18  1  0
 18 19  1  0
 19 20  1  0
 20 21  1  0
 17 22  1  0
 21 22  1  0
 12 23  1  0
 23 24  2  0
 24 25  1  0
 25 26  2  0
 26 27  1  0
 23 28  1  0
 27 28  2  0
 27 29  1  0
 30 29  1  6
 30 31  1  0
 31 32  1  0
 32 33  1  0
 33 34  1  0
 30 35  1  0
 34 35  1  0
M  END
$$$$
