3oy1
     RDKit          3D

 35 40  0  0  0  0  0  0  0  0999 V2000
  -17.3067   12.4730  -36.2191 C   0  0  0  0  0  0  0  0  0  0  0  0
  -18.3192   12.1534  -35.3589 C   0  0  0  0  0  0  0  0  0  0  0  0
  -18.4159   12.7637  -34.1281 C   0  0  0  0  0  0  0  0  0  0  0  0
  -17.5036   13.7115  -33.7208 C   0  0  0  0  0  0  0  0  0  0  0  0
  -16.4802   14.0345  -34.5903 C   0  0  0  0  0  0  0  0  0  0  0  0
  -16.3768   13.4273  -35.8250 C   0  0  0  0  0  0  0  0  0  0  0  0
  -19.4510   12.4240  -33.2720 C   0  0  0  0  0  0  0  0  0  0  0  0
  -20.4058   11.4723  -33.6263 C   0  0  0  0  0  0  0  0  0  0  0  0
  -20.3117   10.8645  -34.8488 C   0  0  0  0  0  0  0  0  0  0  0  0
  -19.2777   11.2062  -35.6998 C   0  0  0  0  0  0  0  0  0  0  0  0
  -21.4289   11.1951  -32.6751 N   0  0  0  0  0  0  0  0  0  0  0  0
  -21.7509   10.0039  -32.1392 C   0  0  0  0  0  0  0  0  0  0  0  0
  -22.7668   10.1855  -31.2925 N   0  0  0  0  0  0  0  0  0  0  0  0
  -23.1153   11.4782  -31.2654 N   0  0  0  0  0  0  0  0  0  0  0  0
  -22.2786   12.0818  -32.1241 C   0  0  0  0  0  0  0  0  0  0  0  0
  -22.2766   13.2924  -32.3850 O   0  0  0  0  0  0  0  0  0  0  0  0
  -24.1773   12.0053  -30.4524 C   0  0  2  0  0  0  0  0  0  0  0  0
  -24.0768   11.7121  -28.9983 C   0  0  0  0  0  0  0  0  0  0  0  0
  -24.7005   10.3587  -28.7468 C   0  0  0  0  0  0  0  0  0  0  0  0
  -26.0856   10.5331  -28.7548 O   0  0  0  0  0  0  0  0  0  0  0  0
  -26.4707   11.4162  -29.7565 C   0  0  0  0  0  0  0  0  0  0  0  0
  -25.5001   11.4104  -30.9199 C   0  0  0  0  0  0  0  0  0  0  0  0
  -21.1243    8.7151  -32.4096 C   0  0  0  0  0  0  0  0  0  0  0  0
  -19.8412    8.7049  -32.9568 C   0  0  0  0  0  0  0  0  0  0  0  0
  -19.1829    7.5190  -33.2404 C   0  0  0  0  0  0  0  0  0  0  0  0
  -19.8180    6.3488  -32.9724 N   0  0  0  0  0  0  0  0  0  0  0  0
  -21.0532    6.3536  -32.4457 C   0  0  0  0  0  0  0  0  0  0  0  0
  -21.7410    7.5065  -32.1496 C   0  0  0  0  0  0  0  0  0  0  0  0
  -21.6728    5.1026  -32.1845 N   0  0  0  0  0  0  0  0  0  0  0  0
  -23.0420    5.0656  -31.6823 C   0  0  1  0  0  0  0  0  0  0  0  0
  -23.7498    3.8014  -32.1575 C   0  0  0  0  0  0  0  0  0  0  0  0
  -25.2297    4.0040  -31.8584 C   0  0  0  0  0  0  0  0  0  0  0  0
  -25.3956    4.0525  -30.3571 C   0  0  0  0  0  0  0  0  0  0  0  0
  -24.0745    4.0696  -29.6361 C   0  0  0  0  0  0  0  0  0  0  0  0
  -23.0893    5.0560  -30.1703 C   0  0  0  0  0  0  0  0  0  0  0  0
  1  2  2  0
  2  3  1  0
  3  4  2  0
  4  5  1  0
  1  6  1  0
  5  6  2  0
  3  7  1  0
  7  8  2  0
  8  9  1  0
  2 10  1  0
  9 10  2  0
  8 11  1  0
 11 12  1  0
 12 13  2  0
 13 14  1  0
 11 15  1  0
 14 15  1  0
 15 16  2  0
 17 14  1  6
 17 18  1  0
 18 19  1  0
 19 20  1  0
 20 21  1  0
 17 22  1  0
 21 22  1  0
 12 23  1  0
 23 24  2  0
 24 25  1  0
 25 26  2  0
 26 27  1  0
 23 28  1  0
 27 28  2  0
 27 29  1  0
 30 29  1  1
 30 31  1  0
 31 32  1  0
 32 33  1  0
 33 34  1  0
 30 35  1  0
 34 35  1  0
M  END
$$$$
