3oy1
     RDKit          3D

 35 40  0  0  0  0  0  0  0  0999 V2000
  -17.6500   11.4559  -36.7308 C   0  0  0  0  0  0  0  0  0  0  0  0
  -18.5548   11.3251  -35.7151 C   0  0  0  0  0  0  0  0  0  0  0  0
  -18.4042   12.0325  -34.5431 C   0  0  0  0  0  0  0  0  0  0  0  0
  -17.3450   12.8914  -34.3517 C   0  0  0  0  0  0  0  0  0  0  0  0
  -16.4305   13.0237  -35.3783 C   0  0  0  0  0  0  0  0  0  0  0  0
  -16.5747   12.3183  -36.5553 C   0  0  0  0  0  0  0  0  0  0  0  0
  -19.3339   11.8841  -33.5266 C   0  0  0  0  0  0  0  0  0  0  0  0
  -20.4276   11.0303  -33.6596 C   0  0  0  0  0  0  0  0  0  0  0  0
  -20.5793   10.3264  -34.8233 C   0  0  0  0  0  0  0  0  0  0  0  0
  -19.6497   10.4772  -35.8349 C   0  0  0  0  0  0  0  0  0  0  0  0
  -21.3249   10.9495  -32.5565 N   0  0  0  0  0  0  0  0  0  0  0  0
  -21.6993    9.8476  -31.8817 C   0  0  0  0  0  0  0  0  0  0  0  0
  -22.5522   10.2128  -30.9220 N   0  0  0  0  0  0  0  0  0  0  0  0
  -22.7423   11.5379  -30.9577 N   0  0  0  0  0  0  0  0  0  0  0  0
  -21.9771   11.9716  -31.9717 C   0  0  0  0  0  0  0  0  0  0  0  0
  -21.8745   13.1516  -32.3329 O   0  0  0  0  0  0  0  0  0  0  0  0
  -23.6058   12.2486  -30.0545 C   0  0  2  0  0  0  0  0  0  0  0  0
  -25.0568   12.1848  -30.3720 C   0  0  0  0  0  0  0  0  0  0  0  0
  -25.3702   13.2809  -31.3642 C   0  0  0  0  0  0  0  0  0  0  0  0
  -25.4399   14.4784  -30.6501 O   0  0  0  0  0  0  0  0  0  0  0  0
  -24.4458   14.5390  -29.6807 C   0  0  0  0  0  0  0  0  0  0  0  0
  -23.2279   13.7249  -30.0676 C   0  0  0  0  0  0  0  0  0  0  0  0
  -21.2714    8.4748  -32.1245 C   0  0  0  0  0  0  0  0  0  0  0  0
  -20.1747    8.2615  -32.9599 C   0  0  0  0  0  0  0  0  0  0  0  0
  -19.7109    6.9853  -33.2366 C   0  0  0  0  0  0  0  0  0  0  0  0
  -20.3522    5.9296  -32.6720 N   0  0  0  0  0  0  0  0  0  0  0  0
  -21.4083    6.1300  -31.8673 C   0  0  0  0  0  0  0  0  0  0  0  0
  -21.9001    7.3782  -31.5670 C   0  0  0  0  0  0  0  0  0  0  0  0
  -22.0431    4.9920  -31.3024 N   0  0  0  0  0  0  0  0  0  0  0  0
  -23.2700    5.1580  -30.5308 C   0  0  1  0  0  0  0  0  0  0  0  0
  -24.4881    5.0869  -31.4452 C   0  0  0  0  0  0  0  0  0  0  0  0
  -25.6700    5.5783  -30.6191 C   0  0  0  0  0  0  0  0  0  0  0  0
  -25.9052    4.5800  -29.5092 C   0  0  0  0  0  0  0  0  0  0  0  0
  -24.8263    3.5326  -29.4441 C   0  0  0  0  0  0  0  0  0  0  0  0
  -23.4349    4.0719  -29.4908 C   0  0  0  0  0  0  0  0  0  0  0  0
  1  2  2  0
  2  3  1  0
  3  4  2  0
  4  5  1  0
  1  6  1  0
  5  6  2  0
  3  7  1  0
  7  8  2  0
  8  9  1  0
  2 10  1  0
  9 10  2  0
  8 11  1  0
 11 12  1  0
 12 13  2  0
 13 14  1  0
 11 15  1  0
 14 15  1  0
 15 16  2  0
 17 14  1  6
 17 18  1  0
 18 19  1  0
 19 20  1  0
 20 21  1  0
 17 22  1  0
 21 22  1  0
 12 23  1  0
 23 24  2  0
 24 25  1  0
 25 26  2  0
 26 27  1  0
 23 28  1  0
 27 28  2  0
 27 29  1  0
 30 29  1  6
 30 31  1  0
 31 32  1  0
 32 33  1  0
 33 34  1  0
 30 35  1  0
 34 35  1  0
M  END
$$$$
