3oy1
     RDKit          3D

 35 40  0  0  0  0  0  0  0  0999 V2000
  -17.7586   12.3639  -36.8490 C   0  0  0  0  0  0  0  0  0  0  0  0
  -18.7147   12.1305  -35.9010 C   0  0  0  0  0  0  0  0  0  0  0  0
  -18.6911   12.8001  -34.6978 C   0  0  0  0  0  0  0  0  0  0  0  0
  -17.7112   13.7228  -34.4067 C   0  0  0  0  0  0  0  0  0  0  0  0
  -16.7447   13.9588  -35.3649 C   0  0  0  0  0  0  0  0  0  0  0  0
  -16.7619   13.2918  -36.5725 C   0  0  0  0  0  0  0  0  0  0  0  0
  -19.6708   12.5474  -33.7514 C   0  0  0  0  0  0  0  0  0  0  0  0
  -20.6892   11.6251  -33.9864 C   0  0  0  0  0  0  0  0  0  0  0  0
  -20.7147   10.9585  -35.1812 C   0  0  0  0  0  0  0  0  0  0  0  0
  -19.7355   11.2134  -36.1228 C   0  0  0  0  0  0  0  0  0  0  0  0
  -21.6471   11.4387  -32.9491 N   0  0  0  0  0  0  0  0  0  0  0  0
  -21.9649   10.2920  -32.3214 C   0  0  0  0  0  0  0  0  0  0  0  0
  -22.9093   10.5571  -31.4160 N   0  0  0  0  0  0  0  0  0  0  0  0
  -23.2152   11.8605  -31.4409 N   0  0  0  0  0  0  0  0  0  0  0  0
  -22.4262   12.3846  -32.3922 C   0  0  0  0  0  0  0  0  0  0  0  0
  -22.4065   13.5774  -32.7242 O   0  0  0  0  0  0  0  0  0  0  0  0
  -24.1975   12.4700  -30.5864 C   0  0  2  0  0  0  0  0  0  0  0  0
  -23.9892   12.2715  -29.1278 C   0  0  0  0  0  0  0  0  0  0  0  0
  -24.6216   10.9558  -28.7368 C   0  0  0  0  0  0  0  0  0  0  0  0
  -25.9987   11.1678  -28.6498 O   0  0  0  0  0  0  0  0  0  0  0  0
  -26.4416   11.9928  -29.6768 C   0  0  0  0  0  0  0  0  0  0  0  0
  -25.5662   11.8825  -30.9086 C   0  0  0  0  0  0  0  0  0  0  0  0
  -21.3998    8.9688  -32.5589 C   0  0  0  0  0  0  0  0  0  0  0  0
  -20.1139    8.8846  -33.0933 C   0  0  0  0  0  0  0  0  0  0  0  0
  -19.5119    7.6623  -33.3458 C   0  0  0  0  0  0  0  0  0  0  0  0
  -20.2058    6.5304  -33.0599 N   0  0  0  0  0  0  0  0  0  0  0  0
  -21.4438    6.6064  -32.5454 C   0  0  0  0  0  0  0  0  0  0  0  0
  -22.0770    7.7974  -32.2799 C   0  0  0  0  0  0  0  0  0  0  0  0
  -22.1261    5.3929  -32.2644 N   0  0  0  0  0  0  0  0  0  0  0  0
  -23.4269    5.4316  -31.6051 C   0  0  1  0  0  0  0  0  0  0  0  0
  -24.0618    4.0453  -31.5975 C   0  0  0  0  0  0  0  0  0  0  0  0
  -25.5151    4.2447  -31.1869 C   0  0  0  0  0  0  0  0  0  0  0  0
  -25.5286    4.7329  -29.7567 C   0  0  0  0  0  0  0  0  0  0  0  0
  -24.1472    5.0403  -29.2444 C   0  0  0  0  0  0  0  0  0  0  0  0
  -23.3166    5.8743  -30.1628 C   0  0  0  0  0  0  0  0  0  0  0  0
  1  2  2  0
  2  3  1  0
  3  4  2  0
  4  5  1  0
  1  6  1  0
  5  6  2  0
  3  7  1  0
  7  8  2  0
  8  9  1  0
  2 10  1  0
  9 10  2  0
  8 11  1  0
 11 12  1  0
 12 13  2  0
 13 14  1  0
 11 15  1  0
 14 15  1  0
 15 16  2  0
 17 14  1  6
 17 18  1  0
 18 19  1  0
 19 20  1  0
 20 21  1  0
 17 22  1  0
 21 22  1  0
 12 23  1  0
 23 24  2  0
 24 25  1  0
 25 26  2  0
 26 27  1  0
 23 28  1  0
 27 28  2  0
 27 29  1  0
 30 29  1  1
 30 31  1  0
 31 32  1  0
 32 33  1  0
 33 34  1  0
 30 35  1  0
 34 35  1  0
M  END
$$$$
