3oy1
     RDKit          3D

 35 40  0  0  0  0  0  0  0  0999 V2000
  -16.7588   12.5490  -35.3488 C   0  0  0  0  0  0  0  0  0  0  0  0
  -17.8704   12.3307  -34.5847 C   0  0  0  0  0  0  0  0  0  0  0  0
  -19.0102   11.7913  -35.1383 C   0  0  0  0  0  0  0  0  0  0  0  0
  -19.0726   11.4541  -36.4721 C   0  0  0  0  0  0  0  0  0  0  0  0
  -17.9490   11.6747  -37.2445 C   0  0  0  0  0  0  0  0  0  0  0  0
  -16.8035   12.2148  -36.6969 C   0  0  0  0  0  0  0  0  0  0  0  0
  -20.1256   11.5787  -34.3444 C   0  0  0  0  0  0  0  0  0  0  0  0
  -20.1250   11.8990  -32.9878 C   0  0  0  0  0  0  0  0  0  0  0  0
  -18.9936   12.4351  -32.4355 C   0  0  0  0  0  0  0  0  0  0  0  0
  -17.8831   12.6457  -33.2309 C   0  0  0  0  0  0  0  0  0  0  0  0
  -21.3221   11.6415  -32.2604 N   0  0  0  0  0  0  0  0  0  0  0  0
  -21.8353   10.4451  -31.9209 C   0  0  0  0  0  0  0  0  0  0  0  0
  -22.9675   10.6508  -31.2444 N   0  0  0  0  0  0  0  0  0  0  0  0
  -23.2040   11.9643  -31.1354 N   0  0  0  0  0  0  0  0  0  0  0  0
  -22.1785   12.5559  -31.7681 C   0  0  0  0  0  0  0  0  0  0  0  0
  -22.0267   13.7787  -31.8906 O   0  0  0  0  0  0  0  0  0  0  0  0
  -24.3460   12.5202  -30.4620 C   0  0  2  0  0  0  0  0  0  0  0  0
  -24.3893   12.3060  -28.9914 C   0  0  0  0  0  0  0  0  0  0  0  0
  -25.0248   10.9599  -28.7303 C   0  0  0  0  0  0  0  0  0  0  0  0
  -26.4034   11.1156  -28.8856 O   0  0  0  0  0  0  0  0  0  0  0  0
  -26.6931   11.9393  -29.9669 C   0  0  0  0  0  0  0  0  0  0  0  0
  -25.6108   11.8842  -31.0259 C   0  0  0  0  0  0  0  0  0  0  0  0
  -21.2822    9.1293  -32.2204 C   0  0  0  0  0  0  0  0  0  0  0  0
  -19.9215    9.0345  -32.5132 C   0  0  0  0  0  0  0  0  0  0  0  0
  -19.3259    7.8184  -32.8073 C   0  0  0  0  0  0  0  0  0  0  0  0
  -20.1013    6.7034  -32.8057 N   0  0  0  0  0  0  0  0  0  0  0  0
  -21.4115    6.7898  -32.5246 C   0  0  0  0  0  0  0  0  0  0  0  0
  -22.0413    7.9752  -32.2277 C   0  0  0  0  0  0  0  0  0  0  0  0
  -22.1775    5.5938  -32.5363 N   0  0  0  0  0  0  0  0  0  0  0  0
  -23.5280    5.5956  -31.9846 C   0  0  1  0  0  0  0  0  0  0  0  0
  -24.1689    4.2209  -32.1405 C   0  0  0  0  0  0  0  0  0  0  0  0
  -25.6501    4.4045  -31.8353 C   0  0  0  0  0  0  0  0  0  0  0  0
  -25.7788    4.7773  -30.3765 C   0  0  0  0  0  0  0  0  0  0  0  0
  -24.4427    5.0261  -29.7298 C   0  0  0  0  0  0  0  0  0  0  0  0
  -23.5345    5.9206  -30.5072 C   0  0  0  0  0  0  0  0  0  0  0  0
  1  2  2  0
  2  3  1  0
  3  4  2  0
  4  5  1  0
  1  6  1  0
  5  6  2  0
  3  7  1  0
  7  8  2  0
  8  9  1  0
  2 10  1  0
  9 10  2  0
  8 11  1  0
 11 12  1  0
 12 13  2  0
 13 14  1  0
 11 15  1  0
 14 15  1  0
 15 16  2  0
 17 14  1  6
 17 18  1  0
 18 19  1  0
 19 20  1  0
 20 21  1  0
 17 22  1  0
 21 22  1  0
 12 23  1  0
 23 24  2  0
 24 25  1  0
 25 26  2  0
 26 27  1  0
 23 28  1  0
 27 28  2  0
 27 29  1  0
 30 29  1  1
 30 31  1  0
 31 32  1  0
 32 33  1  0
 33 34  1  0
 30 35  1  0
 34 35  1  0
M  END
$$$$
