3oy1
     RDKit          3D

 35 40  0  0  0  0  0  0  0  0999 V2000
  -16.6433   12.1210  -34.9423 C   0  0  0  0  0  0  0  0  0  0  0  0
  -17.7866   11.9664  -34.2100 C   0  0  0  0  0  0  0  0  0  0  0  0
  -18.9018   11.3765  -34.7624 C   0  0  0  0  0  0  0  0  0  0  0  0
  -18.9071   10.9238  -36.0629 C   0  0  0  0  0  0  0  0  0  0  0  0
  -17.7514   11.0800  -36.8032 C   0  0  0  0  0  0  0  0  0  0  0  0
  -16.6304   11.6700  -36.2566 C   0  0  0  0  0  0  0  0  0  0  0  0
  -20.0501   11.2302  -34.0012 C   0  0  0  0  0  0  0  0  0  0  0  0
  -20.1075   11.6680  -32.6791 C   0  0  0  0  0  0  0  0  0  0  0  0
  -19.0007   12.2544  -32.1280 C   0  0  0  0  0  0  0  0  0  0  0  0
  -17.8571   12.3985  -32.8908 C   0  0  0  0  0  0  0  0  0  0  0  0
  -21.3346   11.4707  -31.9836 N   0  0  0  0  0  0  0  0  0  0  0  0
  -21.8880   10.3028  -31.6098 C   0  0  0  0  0  0  0  0  0  0  0  0
  -23.0373   10.5645  -30.9833 N   0  0  0  0  0  0  0  0  0  0  0  0
  -23.2454   11.8866  -30.9409 N   0  0  0  0  0  0  0  0  0  0  0  0
  -22.1848   12.4256  -31.5626 C   0  0  0  0  0  0  0  0  0  0  0  0
  -21.9993   13.6379  -31.7336 O   0  0  0  0  0  0  0  0  0  0  0  0
  -24.3959   12.4980  -30.3333 C   0  0  2  0  0  0  0  0  0  0  0  0
  -24.5424   12.2749  -28.8707 C   0  0  0  0  0  0  0  0  0  0  0  0
  -25.2641   10.9631  -28.6646 C   0  0  0  0  0  0  0  0  0  0  0  0
  -26.6199   11.1944  -28.9033 O   0  0  0  0  0  0  0  0  0  0  0  0
  -26.7970   12.0410  -29.9912 C   0  0  0  0  0  0  0  0  0  0  0  0
  -25.6552   11.9359  -30.9816 C   0  0  0  0  0  0  0  0  0  0  0  0
  -21.3572    8.9627  -31.8312 C   0  0  0  0  0  0  0  0  0  0  0  0
  -20.0460    8.8379  -32.2911 C   0  0  0  0  0  0  0  0  0  0  0  0
  -19.4740    7.5974  -32.5241 C   0  0  0  0  0  0  0  0  0  0  0  0
  -20.2231    6.4883  -32.2936 N   0  0  0  0  0  0  0  0  0  0  0  0
  -21.4856    6.6034  -31.8510 C   0  0  0  0  0  0  0  0  0  0  0  0
  -22.0907    7.8136  -31.6073 C   0  0  0  0  0  0  0  0  0  0  0  0
  -22.2258    5.4124  -31.6259 N   0  0  0  0  0  0  0  0  0  0  0  0
  -23.5868    5.4949  -31.1072 C   0  0  1  0  0  0  0  0  0  0  0  0
  -24.4904    4.4953  -31.8208 C   0  0  0  0  0  0  0  0  0  0  0  0
  -25.9189    4.8700  -31.4469 C   0  0  0  0  0  0  0  0  0  0  0  0
  -26.0888    4.6239  -29.9656 C   0  0  0  0  0  0  0  0  0  0  0  0
  -24.7903    4.2692  -29.2922 C   0  0  0  0  0  0  0  0  0  0  0  0
  -23.6496    5.1710  -29.6309 C   0  0  0  0  0  0  0  0  0  0  0  0
  1  2  2  0
  2  3  1  0
  3  4  2  0
  4  5  1  0
  1  6  1  0
  5  6  2  0
  3  7  1  0
  7  8  2  0
  8  9  1  0
  2 10  1  0
  9 10  2  0
  8 11  1  0
 11 12  1  0
 12 13  2  0
 13 14  1  0
 11 15  1  0
 14 15  1  0
 15 16  2  0
 17 14  1  6
 17 18  1  0
 18 19  1  0
 19 20  1  0
 20 21  1  0
 17 22  1  0
 21 22  1  0
 12 23  1  0
 23 24  2  0
 24 25  1  0
 25 26  2  0
 26 27  1  0
 23 28  1  0
 27 28  2  0
 27 29  1  0
 30 29  1  6
 30 31  1  0
 31 32  1  0
 32 33  1  0
 33 34  1  0
 30 35  1  0
 34 35  1  0
M  END
$$$$
