3oy1
     RDKit          3D

 35 40  0  0  0  0  0  0  0  0999 V2000
  -16.6997   12.1405  -35.4634 C   0  0  0  0  0  0  0  0  0  0  0  0
  -17.8738   11.9977  -34.7790 C   0  0  0  0  0  0  0  0  0  0  0  0
  -18.9484   11.3543  -35.3516 C   0  0  0  0  0  0  0  0  0  0  0  0
  -18.8813   10.8347  -36.6251 C   0  0  0  0  0  0  0  0  0  0  0  0
  -17.6946   10.9791  -37.3170 C   0  0  0  0  0  0  0  0  0  0  0  0
  -16.6137   11.6224  -36.7499 C   0  0  0  0  0  0  0  0  0  0  0  0
  -20.1291   11.2210  -34.6389 C   0  0  0  0  0  0  0  0  0  0  0  0
  -20.2596   11.7253  -33.3460 C   0  0  0  0  0  0  0  0  0  0  0  0
  -19.1932   12.3650  -32.7750 C   0  0  0  0  0  0  0  0  0  0  0  0
  -18.0172   12.4958  -33.4892 C   0  0  0  0  0  0  0  0  0  0  0  0
  -21.5147   11.5360  -32.7000 N   0  0  0  0  0  0  0  0  0  0  0  0
  -22.0473   10.3804  -32.2633 C   0  0  0  0  0  0  0  0  0  0  0  0
  -23.2366   10.6459  -31.7184 N   0  0  0  0  0  0  0  0  0  0  0  0
  -23.4915   11.9585  -31.7915 N   0  0  0  0  0  0  0  0  0  0  0  0
  -22.4181   12.4876  -32.3996 C   0  0  0  0  0  0  0  0  0  0  0  0
  -22.2649   13.6893  -32.6566 O   0  0  0  0  0  0  0  0  0  0  0  0
  -24.6928   12.5710  -31.2932 C   0  0  2  0  0  0  0  0  0  0  0  0
  -24.4925   13.6610  -30.3022 C   0  0  0  0  0  0  0  0  0  0  0  0
  -24.3710   13.0350  -28.9321 C   0  0  0  0  0  0  0  0  0  0  0  0
  -25.6607   12.7046  -28.5118 O   0  0  0  0  0  0  0  0  0  0  0  0
  -26.4099   12.1880  -29.5623 C   0  0  0  0  0  0  0  0  0  0  0  0
  -25.5379   11.5097  -30.5992 C   0  0  0  0  0  0  0  0  0  0  0  0
  -21.4603    9.0483  -32.3506 C   0  0  0  0  0  0  0  0  0  0  0  0
  -20.0975    8.9427  -32.6295 C   0  0  0  0  0  0  0  0  0  0  0  0
  -19.4705    7.7108  -32.7276 C   0  0  0  0  0  0  0  0  0  0  0  0
  -20.2168    6.5910  -32.5449 N   0  0  0  0  0  0  0  0  0  0  0  0
  -21.5289    6.6876  -32.2762 C   0  0  0  0  0  0  0  0  0  0  0  0
  -22.1893    7.8887  -32.1704 C   0  0  0  0  0  0  0  0  0  0  0  0
  -22.2637    5.4860  -32.0937 N   0  0  0  0  0  0  0  0  0  0  0  0
  -23.6112    5.5408  -31.5375 C   0  0  1  0  0  0  0  0  0  0  0  0
  -24.2492    4.1559  -31.5496 C   0  0  0  0  0  0  0  0  0  0  0  0
  -25.7293    4.3663  -31.2565 C   0  0  0  0  0  0  0  0  0  0  0  0
  -25.8513    4.8849  -29.8423 C   0  0  0  0  0  0  0  0  0  0  0  0
  -24.5124    5.2010  -29.2316 C   0  0  0  0  0  0  0  0  0  0  0  0
  -23.6109    6.0140  -30.1008 C   0  0  0  0  0  0  0  0  0  0  0  0
  1  2  2  0
  2  3  1  0
  3  4  2  0
  4  5  1  0
  1  6  1  0
  5  6  2  0
  3  7  1  0
  7  8  2  0
  8  9  1  0
  2 10  1  0
  9 10  2  0
  8 11  1  0
 11 12  1  0
 12 13  2  0
 13 14  1  0
 11 15  1  0
 14 15  1  0
 15 16  2  0
 17 14  1  1
 17 18  1  0
 18 19  1  0
 19 20  1  0
 20 21  1  0
 17 22  1  0
 21 22  1  0
 12 23  1  0
 23 24  2  0
 24 25  1  0
 25 26  2  0
 26 27  1  0
 23 28  1  0
 27 28  2  0
 27 29  1  0
 30 29  1  1
 30 31  1  0
 31 32  1  0
 32 33  1  0
 33 34  1  0
 30 35  1  0
 34 35  1  0
M  END
$$$$
