3oy1
     RDKit          3D

 35 40  0  0  0  0  0  0  0  0999 V2000
  -16.9784   12.0569  -35.6273 C   0  0  0  0  0  0  0  0  0  0  0  0
  -18.0461   11.8086  -34.8114 C   0  0  0  0  0  0  0  0  0  0  0  0
  -18.0822   12.3074  -33.5282 C   0  0  0  0  0  0  0  0  0  0  0  0
  -17.0523   13.0690  -33.0227 C   0  0  0  0  0  0  0  0  0  0  0  0
  -15.9730   13.3200  -33.8474 C   0  0  0  0  0  0  0  0  0  0  0  0
  -15.9298   12.8236  -35.1340 C   0  0  0  0  0  0  0  0  0  0  0  0
  -19.1750   12.0430  -32.7186 C   0  0  0  0  0  0  0  0  0  0  0  0
  -20.2488   11.2787  -33.1722 C   0  0  0  0  0  0  0  0  0  0  0  0
  -20.2152   10.7820  -34.4469 C   0  0  0  0  0  0  0  0  0  0  0  0
  -19.1232   11.0480  -35.2513 C   0  0  0  0  0  0  0  0  0  0  0  0
  -21.3230   11.0652  -32.2617 N   0  0  0  0  0  0  0  0  0  0  0  0
  -21.7879    9.8896  -31.8015 C   0  0  0  0  0  0  0  0  0  0  0  0
  -22.8020   10.1362  -30.9692 N   0  0  0  0  0  0  0  0  0  0  0  0
  -23.0087   11.4561  -30.8771 N   0  0  0  0  0  0  0  0  0  0  0  0
  -22.0869   12.0092  -31.6810 C   0  0  0  0  0  0  0  0  0  0  0  0
  -21.9459   13.2244  -31.8730 O   0  0  0  0  0  0  0  0  0  0  0  0
  -24.0301   12.0525  -30.0601 C   0  0  2  0  0  0  0  0  0  0  0  0
  -25.2045   12.5919  -30.7951 C   0  0  0  0  0  0  0  0  0  0  0  0
  -24.8799   14.0021  -31.2309 C   0  0  0  0  0  0  0  0  0  0  0  0
  -25.0289   14.8256  -30.1136 O   0  0  0  0  0  0  0  0  0  0  0  0
  -24.5338   14.2090  -28.9706 C   0  0  0  0  0  0  0  0  0  0  0  0
  -23.4287   13.2238  -29.2929 C   0  0  0  0  0  0  0  0  0  0  0  0
  -21.2974    8.5560  -32.1298 C   0  0  0  0  0  0  0  0  0  0  0  0
  -19.9703    8.4209  -32.5380 C   0  0  0  0  0  0  0  0  0  0  0  0
  -19.4344    7.1858  -32.8660 C   0  0  0  0  0  0  0  0  0  0  0  0
  -20.2356    6.0924  -32.7822 N   0  0  0  0  0  0  0  0  0  0  0  0
  -21.5137    6.2175  -32.3898 C   0  0  0  0  0  0  0  0  0  0  0  0
  -22.0842    7.4229  -32.0557 C   0  0  0  0  0  0  0  0  0  0  0  0
  -22.3087    5.0428  -32.3190 N   0  0  0  0  0  0  0  0  0  0  0  0
  -23.7098    5.1416  -31.9246 C   0  0  1  0  0  0  0  0  0  0  0  0
  -24.6117    5.1254  -33.1540 C   0  0  0  0  0  0  0  0  0  0  0  0
  -25.9948    5.5453  -32.6729 C   0  0  0  0  0  0  0  0  0  0  0  0
  -26.5091    4.4675  -31.7467 C   0  0  0  0  0  0  0  0  0  0  0  0
  -25.4639    3.4280  -31.4430 C   0  0  0  0  0  0  0  0  0  0  0  0
  -24.1340    3.9819  -31.0508 C   0  0  0  0  0  0  0  0  0  0  0  0
  1  2  2  0
  2  3  1  0
  3  4  2  0
  4  5  1  0
  1  6  1  0
  5  6  2  0
  3  7  1  0
  7  8  2  0
  8  9  1  0
  2 10  1  0
  9 10  2  0
  8 11  1  0
 11 12  1  0
 12 13  2  0
 13 14  1  0
 11 15  1  0
 14 15  1  0
 15 16  2  0
 17 14  1  6
 17 18  1  0
 18 19  1  0
 19 20  1  0
 20 21  1  0
 17 22  1  0
 21 22  1  0
 12 23  1  0
 23 24  2  0
 24 25  1  0
 25 26  2  0
 26 27  1  0
 23 28  1  0
 27 28  2  0
 27 29  1  0
 30 29  1  6
 30 31  1  0
 31 32  1  0
 32 33  1  0
 33 34  1  0
 30 35  1  0
 34 35  1  0
M  END
$$$$
