3oy1
     RDKit          3D

 35 40  0  0  0  0  0  0  0  0999 V2000
  -17.0197   11.9722  -36.3349 C   0  0  0  0  0  0  0  0  0  0  0  0
  -18.1208   11.7906  -35.5462 C   0  0  0  0  0  0  0  0  0  0  0  0
  -18.3183   12.5645  -34.4243 C   0  0  0  0  0  0  0  0  0  0  0  0
  -17.4212   13.5428  -34.0576 C   0  0  0  0  0  0  0  0  0  0  0  0
  -16.3083   13.7265  -34.8547 C   0  0  0  0  0  0  0  0  0  0  0  0
  -16.1036   12.9550  -35.9801 C   0  0  0  0  0  0  0  0  0  0  0  0
  -19.4420   12.3627  -33.6395 C   0  0  0  0  0  0  0  0  0  0  0  0
  -20.3867   11.3884  -33.9578 C   0  0  0  0  0  0  0  0  0  0  0  0
  -20.1925   10.6182  -35.0720 C   0  0  0  0  0  0  0  0  0  0  0  0
  -19.0702   10.8226  -35.8524 C   0  0  0  0  0  0  0  0  0  0  0  0
  -21.5059   11.2614  -33.0861 N   0  0  0  0  0  0  0  0  0  0  0  0
  -21.9071   10.1638  -32.4197 C   0  0  0  0  0  0  0  0  0  0  0  0
  -22.9982   10.4752  -31.7165 N   0  0  0  0  0  0  0  0  0  0  0  0
  -23.3180   11.7608  -31.9121 N   0  0  0  0  0  0  0  0  0  0  0  0
  -22.3860   12.2258  -32.7588 C   0  0  0  0  0  0  0  0  0  0  0  0
  -22.3302   13.3852  -33.1902 O   0  0  0  0  0  0  0  0  0  0  0  0
  -24.4436   12.4095  -31.2967 C   0  0  2  0  0  0  0  0  0  0  0  0
  -24.1582   13.7246  -30.6648 C   0  0  0  0  0  0  0  0  0  0  0  0
  -23.6692   13.4741  -29.2569 C   0  0  0  0  0  0  0  0  0  0  0  0
  -24.7892   13.1875  -28.4743 O   0  0  0  0  0  0  0  0  0  0  0  0
  -25.6854   12.3796  -29.1641 C   0  0  0  0  0  0  0  0  0  0  0  0
  -24.9890   11.5119  -30.1926 C   0  0  0  0  0  0  0  0  0  0  0  0
  -21.2863    8.8442  -32.4356 C   0  0  0  0  0  0  0  0  0  0  0  0
  -20.0165    8.7171  -32.9990 C   0  0  0  0  0  0  0  0  0  0  0  0
  -19.3644    7.4955  -33.0497 C   0  0  0  0  0  0  0  0  0  0  0  0
  -19.9922    6.4074  -32.5335 N   0  0  0  0  0  0  0  0  0  0  0  0
  -21.2145    6.5249  -31.9901 C   0  0  0  0  0  0  0  0  0  0  0  0
  -21.8959    7.7169  -31.9198 C   0  0  0  0  0  0  0  0  0  0  0  0
  -21.8270    5.3563  -31.4645 N   0  0  0  0  0  0  0  0  0  0  0  0
  -23.2820    5.2595  -31.4235 C   0  0  1  0  0  0  0  0  0  0  0  0
  -23.7378    4.6397  -30.1070 C   0  0  0  0  0  0  0  0  0  0  0  0
  -25.2106    4.2938  -30.2865 C   0  0  0  0  0  0  0  0  0  0  0  0
  -25.9742    5.5888  -30.4406 C   0  0  0  0  0  0  0  0  0  0  0  0
  -25.0619    6.7809  -30.5504 C   0  0  0  0  0  0  0  0  0  0  0  0
  -23.9419    6.6170  -31.5239 C   0  0  0  0  0  0  0  0  0  0  0  0
  1  2  2  0
  2  3  1  0
  3  4  2  0
  4  5  1  0
  1  6  1  0
  5  6  2  0
  3  7  1  0
  7  8  2  0
  8  9  1  0
  2 10  1  0
  9 10  2  0
  8 11  1  0
 11 12  1  0
 12 13  2  0
 13 14  1  0
 11 15  1  0
 14 15  1  0
 15 16  2  0
 17 14  1  1
 17 18  1  0
 18 19  1  0
 19 20  1  0
 20 21  1  0
 17 22  1  0
 21 22  1  0
 12 23  1  0
 23 24  2  0
 24 25  1  0
 25 26  2  0
 26 27  1  0
 23 28  1  0
 27 28  2  0
 27 29  1  0
 30 29  1  1
 30 31  1  0
 31 32  1  0
 32 33  1  0
 33 34  1  0
 30 35  1  0
 34 35  1  0
M  END
$$$$
