3oy1
     RDKit          3D

 35 40  0  0  0  0  0  0  0  0999 V2000
  -17.2872   11.1949  -36.6170 C   0  0  0  0  0  0  0  0  0  0  0  0
  -18.2236   11.1054  -35.6258 C   0  0  0  0  0  0  0  0  0  0  0  0
  -18.3122   12.0750  -34.6518 C   0  0  0  0  0  0  0  0  0  0  0  0
  -17.4677   13.1627  -34.6399 C   0  0  0  0  0  0  0  0  0  0  0  0
  -16.5212   13.2532  -35.6418 C   0  0  0  0  0  0  0  0  0  0  0  0
  -16.4264   12.2857  -36.6209 C   0  0  0  0  0  0  0  0  0  0  0  0
  -19.2694   11.9637  -33.6564 C   0  0  0  0  0  0  0  0  0  0  0  0
  -20.1533   10.8866  -33.6139 C   0  0  0  0  0  0  0  0  0  0  0  0
  -20.0671    9.9219  -34.5806 C   0  0  0  0  0  0  0  0  0  0  0  0
  -19.1108   10.0367  -35.5718 C   0  0  0  0  0  0  0  0  0  0  0  0
  -21.0993   10.8661  -32.5495 N   0  0  0  0  0  0  0  0  0  0  0  0
  -21.6191    9.7888  -31.9337 C   0  0  0  0  0  0  0  0  0  0  0  0
  -22.4667   10.2115  -30.9929 N   0  0  0  0  0  0  0  0  0  0  0  0
  -22.5101   11.5498  -30.9830 N   0  0  0  0  0  0  0  0  0  0  0  0
  -21.6605   11.9323  -31.9494 C   0  0  0  0  0  0  0  0  0  0  0  0
  -21.4154   13.1059  -32.2592 O   0  0  0  0  0  0  0  0  0  0  0  0
  -23.3283   12.3188  -30.0854 C   0  0  2  0  0  0  0  0  0  0  0  0
  -24.7353   11.8587  -29.9479 C   0  0  0  0  0  0  0  0  0  0  0  0
  -25.5470   12.4885  -31.0563 C   0  0  0  0  0  0  0  0  0  0  0  0
  -25.7994   13.8104  -30.6851 O   0  0  0  0  0  0  0  0  0  0  0  0
  -24.6816   14.3827  -30.0894 C   0  0  0  0  0  0  0  0  0  0  0  0
  -23.3937   13.7571  -30.5850 C   0  0  0  0  0  0  0  0  0  0  0  0
  -21.3330    8.3867  -32.2147 C   0  0  0  0  0  0  0  0  0  0  0  0
  -20.3411    8.0881  -33.1491 C   0  0  0  0  0  0  0  0  0  0  0  0
  -20.0146    6.7796  -33.4673 C   0  0  0  0  0  0  0  0  0  0  0  0
  -20.6869    5.7774  -32.8444 N   0  0  0  0  0  0  0  0  0  0  0  0
  -21.6425    6.0599  -31.9443 C   0  0  0  0  0  0  0  0  0  0  0  0
  -21.9970    7.3428  -31.6000 C   0  0  0  0  0  0  0  0  0  0  0  0
  -22.3154    4.9752  -31.3216 N   0  0  0  0  0  0  0  0  0  0  0  0
  -23.6459    5.1779  -30.7587 C   0  0  1  0  0  0  0  0  0  0  0  0
  -24.4511    3.8844  -30.8154 C   0  0  0  0  0  0  0  0  0  0  0  0
  -25.8936    4.2669  -30.5095 C   0  0  0  0  0  0  0  0  0  0  0  0
  -25.9507    4.7479  -29.0780 C   0  0  0  0  0  0  0  0  0  0  0  0
  -24.5831    4.8740  -28.4621 C   0  0  0  0  0  0  0  0  0  0  0  0
  -23.5872    5.5979  -29.3066 C   0  0  0  0  0  0  0  0  0  0  0  0
  1  2  2  0
  2  3  1  0
  3  4  2  0
  4  5  1  0
  1  6  1  0
  5  6  2  0
  3  7  1  0
  7  8  2  0
  8  9  1  0
  2 10  1  0
  9 10  2  0
  8 11  1  0
 11 12  1  0
 12 13  2  0
 13 14  1  0
 11 15  1  0
 14 15  1  0
 15 16  2  0
 17 14  1  6
 17 18  1  0
 18 19  1  0
 19 20  1  0
 20 21  1  0
 17 22  1  0
 21 22  1  0
 12 23  1  0
 23 24  2  0
 24 25  1  0
 25 26  2  0
 26 27  1  0
 23 28  1  0
 27 28  2  0
 27 29  1  0
 30 29  1  1
 30 31  1  0
 31 32  1  0
 32 33  1  0
 33 34  1  0
 30 35  1  0
 34 35  1  0
M  END
$$$$
