3oy1
     RDKit          3D

 35 40  0  0  0  0  0  0  0  0999 V2000
  -17.4762   12.8231  -35.0479 C   0  0  0  0  0  0  0  0  0  0  0  0
  -18.5217   12.4390  -34.2563 C   0  0  0  0  0  0  0  0  0  0  0  0
  -19.4650   11.5488  -34.7192 C   0  0  0  0  0  0  0  0  0  0  0  0
  -19.3912   11.0161  -35.9869 C   0  0  0  0  0  0  0  0  0  0  0  0
  -18.3344   11.4043  -36.7872 C   0  0  0  0  0  0  0  0  0  0  0  0
  -17.3855   12.2957  -36.3303 C   0  0  0  0  0  0  0  0  0  0  0  0
  -20.5166   11.1735  -33.8989 C   0  0  0  0  0  0  0  0  0  0  0  0
  -20.6467   11.6775  -32.6059 C   0  0  0  0  0  0  0  0  0  0  0  0
  -19.7106   12.5622  -32.1437 C   0  0  0  0  0  0  0  0  0  0  0  0
  -18.6631   12.9340  -32.9651 C   0  0  0  0  0  0  0  0  0  0  0  0
  -21.7634   11.2285  -31.8444 N   0  0  0  0  0  0  0  0  0  0  0  0
  -22.0245    9.9753  -31.4306 C   0  0  0  0  0  0  0  0  0  0  0  0
  -23.1707    9.9895  -30.7466 N   0  0  0  0  0  0  0  0  0  0  0  0
  -23.6648   11.2335  -30.7059 N   0  0  0  0  0  0  0  0  0  0  0  0
  -22.7824   11.9804  -31.3881 C   0  0  0  0  0  0  0  0  0  0  0  0
  -22.8793   13.1998  -31.5804 O   0  0  0  0  0  0  0  0  0  0  0  0
  -24.8906   11.5881  -30.0440 C   0  0  2  0  0  0  0  0  0  0  0  0
  -25.8542   12.3744  -30.8586 C   0  0  0  0  0  0  0  0  0  0  0  0
  -25.4907   13.8362  -30.7366 C   0  0  0  0  0  0  0  0  0  0  0  0
  -25.9647   14.2791  -29.5004 O   0  0  0  0  0  0  0  0  0  0  0  0
  -25.7594   13.3202  -28.5155 C   0  0  0  0  0  0  0  0  0  0  0  0
  -24.5651   12.4400  -28.8231 C   0  0  0  0  0  0  0  0  0  0  0  0
  -21.2212    8.7813  -31.6670 C   0  0  0  0  0  0  0  0  0  0  0  0
  -19.8477    8.9348  -31.8567 C   0  0  0  0  0  0  0  0  0  0  0  0
  -19.0210    7.8466  -32.0863 C   0  0  0  0  0  0  0  0  0  0  0  0
  -19.5794    6.6092  -32.1239 N   0  0  0  0  0  0  0  0  0  0  0  0
  -20.9010    6.4565  -31.9418 C   0  0  0  0  0  0  0  0  0  0  0  0
  -21.7559    7.5083  -31.7116 C   0  0  0  0  0  0  0  0  0  0  0  0
  -21.4345    5.1412  -31.9907 N   0  0  0  0  0  0  0  0  0  0  0  0
  -22.8657    4.9346  -31.7981 C   0  0  1  0  0  0  0  0  0  0  0  0
  -23.5830    4.8881  -33.1428 C   0  0  0  0  0  0  0  0  0  0  0  0
  -25.0716    4.9887  -32.8352 C   0  0  0  0  0  0  0  0  0  0  0  0
  -25.4749    3.7386  -32.0880 C   0  0  0  0  0  0  0  0  0  0  0  0
  -24.2912    2.8833  -31.7236 C   0  0  0  0  0  0  0  0  0  0  0  0
  -23.1586    3.6269  -31.0962 C   0  0  0  0  0  0  0  0  0  0  0  0
  1  2  2  0
  2  3  1  0
  3  4  2  0
  4  5  1  0
  1  6  1  0
  5  6  2  0
  3  7  1  0
  7  8  2  0
  8  9  1  0
  2 10  1  0
  9 10  2  0
  8 11  1  0
 11 12  1  0
 12 13  2  0
 13 14  1  0
 11 15  1  0
 14 15  1  0
 15 16  2  0
 17 14  1  6
 17 18  1  0
 18 19  1  0
 19 20  1  0
 20 21  1  0
 17 22  1  0
 21 22  1  0
 12 23  1  0
 23 24  2  0
 24 25  1  0
 25 26  2  0
 26 27  1  0
 23 28  1  0
 27 28  2  0
 27 29  1  0
 30 29  1  6
 30 31  1  0
 31 32  1  0
 32 33  1  0
 33 34  1  0
 30 35  1  0
 34 35  1  0
M  END
$$$$
