3oy1
     RDKit          3D

 35 40  0  0  0  0  0  0  0  0999 V2000
  -16.1302   11.9119  -34.8376 C   0  0  0  0  0  0  0  0  0  0  0  0
  -17.3469   11.7466  -34.2379 C   0  0  0  0  0  0  0  0  0  0  0  0
  -18.4339   11.3074  -34.9605 C   0  0  0  0  0  0  0  0  0  0  0  0
  -18.3369   11.0205  -36.3039 C   0  0  0  0  0  0  0  0  0  0  0  0
  -17.1071   11.1875  -36.9101 C   0  0  0  0  0  0  0  0  0  0  0  0
  -16.0136   11.6271  -36.1926 C   0  0  0  0  0  0  0  0  0  0  0  0
  -19.6579   11.1471  -34.3316 C   0  0  0  0  0  0  0  0  0  0  0  0
  -19.8202   11.4209  -32.9745 C   0  0  0  0  0  0  0  0  0  0  0  0
  -18.7416   11.8574  -32.2544 C   0  0  0  0  0  0  0  0  0  0  0  0
  -17.5223   12.0161  -32.8855 C   0  0  0  0  0  0  0  0  0  0  0  0
  -21.1190   11.2237  -32.4242 N   0  0  0  0  0  0  0  0  0  0  0  0
  -21.7149   10.0554  -32.1244 C   0  0  0  0  0  0  0  0  0  0  0  0
  -22.9271   10.3173  -31.6304 N   0  0  0  0  0  0  0  0  0  0  0  0
  -23.1344   11.6399  -31.6020 N   0  0  0  0  0  0  0  0  0  0  0  0
  -22.0084   12.1790  -32.0953 C   0  0  0  0  0  0  0  0  0  0  0  0
  -21.8008   13.3917  -32.2352 O   0  0  0  0  0  0  0  0  0  0  0  0
  -24.3445   12.2517  -31.1243 C   0  0  2  0  0  0  0  0  0  0  0  0
  -24.3533   12.6131  -29.6822 C   0  0  0  0  0  0  0  0  0  0  0  0
  -24.7840   11.3972  -28.8948 C   0  0  0  0  0  0  0  0  0  0  0  0
  -26.1708   11.2941  -29.0176 O   0  0  0  0  0  0  0  0  0  0  0  0
  -26.5800   11.5937  -30.3116 C   0  0  0  0  0  0  0  0  0  0  0  0
  -25.5032   11.2839  -31.3315 C   0  0  0  0  0  0  0  0  0  0  0  0
  -21.1667    8.7147  -32.2941 C   0  0  0  0  0  0  0  0  0  0  0  0
  -19.8464    8.5896  -32.7268 C   0  0  0  0  0  0  0  0  0  0  0  0
  -19.2578    7.3486  -32.9106 C   0  0  0  0  0  0  0  0  0  0  0  0
  -19.9996    6.2393  -32.6583 N   0  0  0  0  0  0  0  0  0  0  0  0
  -21.2709    6.3548  -32.2416 C   0  0  0  0  0  0  0  0  0  0  0  0
  -21.8924    7.5655  -32.0468 C   0  0  0  0  0  0  0  0  0  0  0  0
  -22.0028    5.1636  -31.9920 N   0  0  0  0  0  0  0  0  0  0  0  0
  -23.4532    5.2239  -31.8475 C   0  0  1  0  0  0  0  0  0  0  0  0
  -23.9394    4.1365  -30.8955 C   0  0  0  0  0  0  0  0  0  0  0  0
  -25.4532    4.0766  -31.0550 C   0  0  0  0  0  0  0  0  0  0  0  0
  -26.0237    5.3807  -30.5474 C   0  0  0  0  0  0  0  0  0  0  0  0
  -24.9513    6.3843  -30.2183 C   0  0  0  0  0  0  0  0  0  0  0  0
  -23.9096    6.5477  -31.2753 C   0  0  0  0  0  0  0  0  0  0  0  0
  1  2  2  0
  2  3  1  0
  3  4  2  0
  4  5  1  0
  1  6  1  0
  5  6  2  0
  3  7  1  0
  7  8  2  0
  8  9  1  0
  2 10  1  0
  9 10  2  0
  8 11  1  0
 11 12  1  0
 12 13  2  0
 13 14  1  0
 11 15  1  0
 14 15  1  0
 15 16  2  0
 17 14  1  1
 17 18  1  0
 18 19  1  0
 19 20  1  0
 20 21  1  0
 17 22  1  0
 21 22  1  0
 12 23  1  0
 23 24  2  0
 24 25  1  0
 25 26  2  0
 26 27  1  0
 23 28  1  0
 27 28  2  0
 27 29  1  0
 30 29  1  1
 30 31  1  0
 31 32  1  0
 32 33  1  0
 33 34  1  0
 30 35  1  0
 34 35  1  0
M  END
$$$$
