3oy1
     RDKit          3D

 35 40  0  0  0  0  0  0  0  0999 V2000
  -17.1167   11.3040  -36.4932 C   0  0  0  0  0  0  0  0  0  0  0  0
  -18.1174   11.2459  -35.5645 C   0  0  0  0  0  0  0  0  0  0  0  0
  -18.0532   11.9982  -34.4126 C   0  0  0  0  0  0  0  0  0  0  0  0
  -16.9868   12.8306  -34.1551 C   0  0  0  0  0  0  0  0  0  0  0  0
  -15.9753   12.8893  -35.0938 C   0  0  0  0  0  0  0  0  0  0  0  0
  -16.0327   12.1386  -36.2500 C   0  0  0  0  0  0  0  0  0  0  0  0
  -19.0794   11.9234  -33.4849 C   0  0  0  0  0  0  0  0  0  0  0  0
  -20.1854   11.0996  -33.6878 C   0  0  0  0  0  0  0  0  0  0  0  0
  -20.2515   10.3512  -34.8316 C   0  0  0  0  0  0  0  0  0  0  0  0
  -19.2256   10.4287  -35.7546 C   0  0  0  0  0  0  0  0  0  0  0  0
  -21.1851   11.0951  -32.6735 N   0  0  0  0  0  0  0  0  0  0  0  0
  -21.6870   10.0316  -32.0200 C   0  0  0  0  0  0  0  0  0  0  0  0
  -22.6022   10.4665  -31.1511 N   0  0  0  0  0  0  0  0  0  0  0  0
  -22.7078   11.7994  -31.2254 N   0  0  0  0  0  0  0  0  0  0  0  0
  -21.8263   12.1658  -32.1691 C   0  0  0  0  0  0  0  0  0  0  0  0
  -21.6193   13.3298  -32.5373 O   0  0  0  0  0  0  0  0  0  0  0  0
  -23.6075   12.5786  -30.4192 C   0  0  2  0  0  0  0  0  0  0  0  0
  -23.7752   12.1152  -29.0165 C   0  0  0  0  0  0  0  0  0  0  0  0
  -24.8492   11.0521  -28.9972 C   0  0  0  0  0  0  0  0  0  0  0  0
  -26.0804   11.7058  -29.0725 O   0  0  0  0  0  0  0  0  0  0  0  0
  -26.0258   12.7697  -29.9651 C   0  0  0  0  0  0  0  0  0  0  0  0
  -24.9937   12.5446  -31.0512 C   0  0  0  0  0  0  0  0  0  0  0  0
  -21.3218    8.6312  -32.1998 C   0  0  0  0  0  0  0  0  0  0  0  0
  -20.1910    8.3346  -32.9610 C   0  0  0  0  0  0  0  0  0  0  0  0
  -19.7830    7.0278  -33.1750 C   0  0  0  0  0  0  0  0  0  0  0  0
  -20.5139    6.0253  -32.6225 N   0  0  0  0  0  0  0  0  0  0  0  0
  -21.6030    6.3058  -31.8890 C   0  0  0  0  0  0  0  0  0  0  0  0
  -22.0420    7.5870  -31.6525 C   0  0  0  0  0  0  0  0  0  0  0  0
  -22.3320    5.2208  -31.3337 N   0  0  0  0  0  0  0  0  0  0  0  0
  -23.5185    5.4854  -30.5270 C   0  0  1  0  0  0  0  0  0  0  0  0
  -24.6522    6.0081  -31.4025 C   0  0  0  0  0  0  0  0  0  0  0  0
  -25.7132    6.5445  -30.4500 C   0  0  0  0  0  0  0  0  0  0  0  0
  -26.2720    5.3743  -29.6741 C   0  0  0  0  0  0  0  0  0  0  0  0
  -25.5126    4.1010  -29.9337 C   0  0  0  0  0  0  0  0  0  0  0  0
  -24.0283    4.2353  -29.8447 C   0  0  0  0  0  0  0  0  0  0  0  0
  1  2  2  0
  2  3  1  0
  3  4  2  0
  4  5  1  0
  1  6  1  0
  5  6  2  0
  3  7  1  0
  7  8  2  0
  8  9  1  0
  2 10  1  0
  9 10  2  0
  8 11  1  0
 11 12  1  0
 12 13  2  0
 13 14  1  0
 11 15  1  0
 14 15  1  0
 15 16  2  0
 17 14  1  6
 17 18  1  0
 18 19  1  0
 19 20  1  0
 20 21  1  0
 17 22  1  0
 21 22  1  0
 12 23  1  0
 23 24  2  0
 24 25  1  0
 25 26  2  0
 26 27  1  0
 23 28  1  0
 27 28  2  0
 27 29  1  0
 30 29  1  6
 30 31  1  0
 31 32  1  0
 32 33  1  0
 33 34  1  0
 30 35  1  0
 34 35  1  0
M  END
$$$$
