1a0q_ligand
     RDKit          3D

 23 23  0  0  0  0  0  0  0  0999 V2000
   13.0314   20.4540   59.2643 C   0  0  2  0  0  0  0  0  0  0  0  0
   12.3128   19.6878   58.1616 C   0  0  0  0  0  0  0  0  0  0  0  0
   11.3431   18.6757   58.7218 C   0  0  0  0  0  0  0  0  0  0  0  0
   11.1411   17.5878   57.6831 C   0  0  0  0  0  0  0  0  0  0  0  0
   12.3457   17.4362   56.7763 C   0  0  0  0  0  0  0  0  0  0  0  0
   16.9714   22.3275   56.3478 C   0  0  0  0  0  0  0  0  0  0  0  0
   17.3323   22.7936   55.0955 C   0  0  0  0  0  0  0  0  0  0  0  0
   16.5166   22.5133   54.0171 C   0  0  0  0  0  0  0  0  0  0  0  0
   15.3631   21.7731   54.2303 C   0  0  0  0  0  0  0  0  0  0  0  0
   15.0129   21.3126   55.4870 C   0  0  0  0  0  0  0  0  0  0  0  0
   15.8363   21.5951   56.5777 C   0  0  0  0  0  0  0  0  0  0  0  0
   12.5411   20.7046   61.6497 C   0  0  0  0  0  0  0  0  0  0  0  0
   11.8434   20.3577   64.0073 C   0  0  0  0  0  0  0  0  0  0  0  0
   11.6222   21.1142   62.7401 C   0  0  0  0  0  0  0  0  0  0  0  0
   11.3514   18.9677   63.8136 C   0  0  0  0  0  0  0  0  0  0  0  0
   13.2252   22.5483   57.6159 O   0  0  0  0  0  0  0  0  0  0  0  0
   14.5274   22.7610   59.8003 O   0  0  0  0  0  0  0  0  0  0  0  0
   15.4886   21.1355   57.8375 O   0  0  0  0  0  0  0  0  0  0  0  0
   13.6596   20.2189   62.0177 O   0  0  0  0  0  0  0  0  0  0  0  0
   10.2372   18.8353   63.2229 O   0  0  0  0  0  0  0  0  0  0  0  0
   12.0498   17.8562   64.2442 O   0  0  0  0  0  0  0  0  0  0  0  0
   12.1573   20.8620   60.3116 N   0  0  0  0  0  0  0  0  0  0  0  0
   14.0694   21.7122   58.5487 P   0  0  1  0  0  0  0  0  0  0  0  0
  1 23  1  0
  1 22  1  1
  1  2  1  0
  2  3  1  6
  3  4  1  6
  4  5  1  6
 22 12  1  0
 12 19  2  0
 14 12  1  1
 14 13  1  0
 13 15  1  6
 15 20  2  0
 15 21  1  0
 23 16  2  0
 23 17  1  1
 23 18  1  0
 18 11  1  0
 11 10  1  0
 11  6  2  0
  6  7  1  0
  7  8  2  0
  8  9  1  0
  9 10  2  0
M  END
$$$$
