1a0q_ligand
     RDKit          3D

 23 23  0  0  0  0  0  0  0  0999 V2000
   13.4741   20.1542   59.6126 C   0  0  2  0  0  0  0  0  0  0  0  0
   13.1027   18.8198   58.9796 C   0  0  0  0  0  0  0  0  0  0  0  0
   11.6362   18.5059   59.1517 C   0  0  0  0  0  0  0  0  0  0  0  0
   11.2934   17.3345   58.2498 C   0  0  0  0  0  0  0  0  0  0  0  0
   11.0035   16.0742   59.0396 C   0  0  0  0  0  0  0  0  0  0  0  0
   15.1123   21.3214   55.3718 C   0  0  0  0  0  0  0  0  0  0  0  0
   15.4802   21.8592   54.1507 C   0  0  0  0  0  0  0  0  0  0  0  0
   16.7634   22.3447   53.9934 C   0  0  0  0  0  0  0  0  0  0  0  0
   17.6375   22.2749   55.0680 C   0  0  0  0  0  0  0  0  0  0  0  0
   17.2579   21.7349   56.2839 C   0  0  0  0  0  0  0  0  0  0  0  0
   15.9616   21.2439   56.4444 C   0  0  0  0  0  0  0  0  0  0  0  0
   12.5621   20.6397   61.8321 C   0  0  0  0  0  0  0  0  0  0  0  0
   11.6996   20.8774   64.1483 C   0  0  0  0  0  0  0  0  0  0  0  0
   11.4201   21.0381   62.6912 C   0  0  0  0  0  0  0  0  0  0  0  0
   11.3125   19.4985   64.5490 C   0  0  0  0  0  0  0  0  0  0  0  0
   13.0568   21.5573   57.3770 O   0  0  0  0  0  0  0  0  0  0  0  0
   14.4947   22.7192   59.1364 O   0  0  0  0  0  0  0  0  0  0  0  0
   15.5782   20.7025   57.6606 O   0  0  0  0  0  0  0  0  0  0  0  0
   13.6176   20.2737   62.4441 O   0  0  0  0  0  0  0  0  0  0  0  0
   11.3935   18.6022   63.6556 O   0  0  0  0  0  0  0  0  0  0  0  0
   10.8825   19.1784   65.8222 O   0  0  0  0  0  0  0  0  0  0  0  0
   12.4393   20.6801   60.4372 N   0  0  0  0  0  0  0  0  0  0  0  0
   14.1468   21.2443   58.3750 P   0  0  1  0  0  0  0  0  0  0  0  0
  1 23  1  0
  1 22  1  6
  1  2  1  0
  2  3  1  6
  3  4  1  6
  4  5  1  6
 22 12  1  0
 12 19  2  0
 14 12  1  1
 14 13  1  0
 13 15  1  6
 15 20  2  0
 15 21  1  0
 23 16  2  0
 23 17  1  1
 23 18  1  0
 18 11  1  0
 11 10  1  0
 11  6  2  0
  6  7  1  0
  7  8  2  0
  8  9  1  0
  9 10  2  0
M  END
$$$$
