1a0q_ligand
     RDKit          3D

 23 23  0  0  0  0  0  0  0  0999 V2000
   13.1088   20.4299   59.4160 C   0  0  2  0  0  0  0  0  0  0  0  0
   12.2500   19.4499   58.6278 C   0  0  0  0  0  0  0  0  0  0  0  0
   11.9015   18.2280   59.4427 C   0  0  0  0  0  0  0  0  0  0  0  0
   11.3558   17.1704   58.5010 C   0  0  0  0  0  0  0  0  0  0  0  0
    9.9567   17.5017   58.0225 C   0  0  0  0  0  0  0  0  0  0  0  0
   15.1654   21.6148   54.7522 C   0  0  0  0  0  0  0  0  0  0  0  0
   15.8975   22.3874   53.8675 C   0  0  0  0  0  0  0  0  0  0  0  0
   16.9275   23.1674   54.3550 C   0  0  0  0  0  0  0  0  0  0  0  0
   17.1902   23.1471   55.7167 C   0  0  0  0  0  0  0  0  0  0  0  0
   16.4512   22.3705   56.5913 C   0  0  0  0  0  0  0  0  0  0  0  0
   15.4101   21.5818   56.1002 C   0  0  0  0  0  0  0  0  0  0  0  0
   12.9346   20.9196   61.8084 C   0  0  0  0  0  0  0  0  0  0  0  0
   12.2817   20.5994   64.1825 C   0  0  0  0  0  0  0  0  0  0  0  0
   12.1642   21.4483   62.9608 C   0  0  0  0  0  0  0  0  0  0  0  0
   11.5382   19.3335   63.9451 C   0  0  0  0  0  0  0  0  0  0  0  0
   12.9577   22.6351   57.9143 O   0  0  0  0  0  0  0  0  0  0  0  0
   15.1545   22.3287   59.1763 O   0  0  0  0  0  0  0  0  0  0  0  0
   14.6681   20.8030   56.9731 O   0  0  0  0  0  0  0  0  0  0  0  0
   14.0613   20.3944   62.0862 O   0  0  0  0  0  0  0  0  0  0  0  0
   10.9081   19.2404   62.8486 O   0  0  0  0  0  0  0  0  0  0  0  0
   11.5157   18.2931   64.8537 O   0  0  0  0  0  0  0  0  0  0  0  0
   12.4129   21.0151   60.5117 N   0  0  0  0  0  0  0  0  0  0  0  0
   13.9320   21.5466   58.2989 P   0  0  1  0  0  0  0  0  0  0  0  0
  1 23  1  0
  1 22  1  1
  1  2  1  0
  2  3  1  6
  3  4  1  6
  4  5  1  6
 22 12  1  0
 12 19  2  0
 14 12  1  1
 14 13  1  0
 13 15  1  6
 15 20  2  0
 15 21  1  0
 23 16  2  0
 23 17  1  1
 23 18  1  0
 18 11  1  0
 11 10  1  0
 11  6  2  0
  6  7  1  0
  7  8  2  0
  8  9  1  0
  9 10  2  0
M  END
$$$$
