1a0q_ligand
     RDKit          3D

 23 23  0  0  0  0  0  0  0  0999 V2000
   13.1920   20.7814   59.1666 C   0  0  2  0  0  0  0  0  0  0  0  0
   12.3143   19.8486   58.3427 C   0  0  0  0  0  0  0  0  0  0  0  0
   11.7884   18.6988   59.1674 C   0  0  0  0  0  0  0  0  0  0  0  0
   11.0229   17.7665   58.2466 C   0  0  0  0  0  0  0  0  0  0  0  0
   10.4302   16.5890   58.9938 C   0  0  0  0  0  0  0  0  0  0  0  0
   16.2009   21.5774   55.8679 C   0  0  0  0  0  0  0  0  0  0  0  0
   17.2360   21.3843   54.9697 C   0  0  0  0  0  0  0  0  0  0  0  0
   16.9360   21.0168   53.6727 C   0  0  0  0  0  0  0  0  0  0  0  0
   15.6050   20.8548   53.3182 C   0  0  0  0  0  0  0  0  0  0  0  0
   14.5788   21.0508   54.2252 C   0  0  0  0  0  0  0  0  0  0  0  0
   14.8803   21.4221   55.5362 C   0  0  0  0  0  0  0  0  0  0  0  0
   12.7557   21.3361   61.5109 C   0  0  0  0  0  0  0  0  0  0  0  0
   12.1535   21.1214   63.9101 C   0  0  0  0  0  0  0  0  0  0  0  0
   11.6616   21.2960   62.5121 C   0  0  0  0  0  0  0  0  0  0  0  0
   11.1173   20.3848   64.6816 C   0  0  0  0  0  0  0  0  0  0  0  0
   14.2729   23.1581   58.5977 O   0  0  0  0  0  0  0  0  0  0  0  0
   15.8211   21.1552   58.2744 O   0  0  0  0  0  0  0  0  0  0  0  0
   13.8553   21.6191   56.4470 O   0  0  0  0  0  0  0  0  0  0  0  0
   13.9367   21.2127   61.9720 O   0  0  0  0  0  0  0  0  0  0  0  0
   11.1690   19.1185   64.6393 O   0  0  0  0  0  0  0  0  0  0  0  0
   10.1347   21.0192   65.4169 O   0  0  0  0  0  0  0  0  0  0  0  0
   12.4583   21.5013   60.1519 N   0  0  0  0  0  0  0  0  0  0  0  0
   14.2389   21.7366   58.0877 P   0  0  1  0  0  0  0  0  0  0  0  0
  1 23  1  0
  1 22  1  6
  1  2  1  0
  2  3  1  6
  3  4  1  6
  4  5  1  6
 22 12  1  0
 12 19  2  0
 14 12  1  1
 14 13  1  0
 13 15  1  6
 15 20  2  0
 15 21  1  0
 23 16  2  0
 23 17  1  6
 23 18  1  0
 18 11  1  0
 11 10  1  0
 11  6  2  0
  6  7  1  0
  7  8  2  0
  8  9  1  0
  9 10  2  0
M  END
$$$$
