1a0q_ligand
     RDKit          3D

 23 23  0  0  0  0  0  0  0  0999 V2000
   12.7654   20.4825   58.6335 C   0  0  2  0  0  0  0  0  0  0  0  0
   11.5723   19.9156   57.8756 C   0  0  0  0  0  0  0  0  0  0  0  0
   11.2789   18.4900   58.2760 C   0  0  0  0  0  0  0  0  0  0  0  0
   10.1054   17.9976   57.4493 C   0  0  0  0  0  0  0  0  0  0  0  0
    9.6870   16.5933   57.8352 C   0  0  0  0  0  0  0  0  0  0  0  0
   16.3622   22.4882   55.7757 C   0  0  0  0  0  0  0  0  0  0  0  0
   17.1330   22.2398   54.6533 C   0  0  0  0  0  0  0  0  0  0  0  0
   17.5835   20.9549   54.4227 C   0  0  0  0  0  0  0  0  0  0  0  0
   17.2456   19.9591   55.3271 C   0  0  0  0  0  0  0  0  0  0  0  0
   16.4743   20.2199   56.4456 C   0  0  0  0  0  0  0  0  0  0  0  0
   16.0183   21.5177   56.6800 C   0  0  0  0  0  0  0  0  0  0  0  0
   13.1440   20.2187   61.0377 C   0  0  0  0  0  0  0  0  0  0  0  0
   13.0256   19.4069   63.3812 C   0  0  0  0  0  0  0  0  0  0  0  0
   12.4157   19.3781   62.0196 C   0  0  0  0  0  0  0  0  0  0  0  0
   11.9454   19.6591   64.3719 C   0  0  0  0  0  0  0  0  0  0  0  0
   13.0866   21.5984   56.2268 O   0  0  0  0  0  0  0  0  0  0  0  0
   12.9756   23.2387   58.1787 O   0  0  0  0  0  0  0  0  0  0  0  0
   15.2458   21.7824   57.7991 O   0  0  0  0  0  0  0  0  0  0  0  0
   14.3974   20.3391   61.2300 O   0  0  0  0  0  0  0  0  0  0  0  0
   11.7186   18.7383   65.2137 O   0  0  0  0  0  0  0  0  0  0  0  0
   11.2085   20.8273   64.3994 O   0  0  0  0  0  0  0  0  0  0  0  0
   12.4518   20.8226   59.9801 N   0  0  0  0  0  0  0  0  0  0  0  0
   13.5637   21.7372   57.6533 P   0  0  1  0  0  0  0  0  0  0  0  0
  1 23  1  0
  1 22  1  1
  1  2  1  0
  2  3  1  6
  3  4  1  6
  4  5  1  6
 22 12  1  0
 12 19  2  0
 14 12  1  1
 14 13  1  0
 13 15  1  6
 15 20  2  0
 15 21  1  0
 23 16  2  0
 23 17  1  1
 23 18  1  0
 18 11  1  0
 11 10  1  0
 11  6  2  0
  6  7  1  0
  7  8  2  0
  8  9  1  0
  9 10  2  0
M  END
$$$$
