1a0q_ligand
     RDKit          3D

 23 23  0  0  0  0  0  0  0  0999 V2000
   13.2755   20.2818   59.0153 C   0  0  2  0  0  0  0  0  0  0  0  0
   12.7088   19.2951   58.0030 C   0  0  0  0  0  0  0  0  0  0  0  0
   11.7833   18.2947   58.6520 C   0  0  0  0  0  0  0  0  0  0  0  0
   11.3231   17.3153   57.5880 C   0  0  0  0  0  0  0  0  0  0  0  0
   10.8779   15.9952   58.1842 C   0  0  0  0  0  0  0  0  0  0  0  0
   16.0101   22.4015   55.8483 C   0  0  0  0  0  0  0  0  0  0  0  0
   17.0479   22.4393   54.9334 C   0  0  0  0  0  0  0  0  0  0  0  0
   16.8884   21.8093   53.7149 C   0  0  0  0  0  0  0  0  0  0  0  0
   15.6908   21.1605   53.4533 C   0  0  0  0  0  0  0  0  0  0  0  0
   14.6604   21.1296   54.3760 C   0  0  0  0  0  0  0  0  0  0  0  0
   14.8201   21.7658   55.6077 C   0  0  0  0  0  0  0  0  0  0  0  0
   12.4845   20.3807   61.3300 C   0  0  0  0  0  0  0  0  0  0  0  0
   11.5148   20.0690   63.5945 C   0  0  0  0  0  0  0  0  0  0  0  0
   11.5184   20.8777   62.3403 C   0  0  0  0  0  0  0  0  0  0  0  0
   12.6651   20.5010   64.4322 C   0  0  0  0  0  0  0  0  0  0  0  0
   14.0283   22.8452   58.9595 O   0  0  0  0  0  0  0  0  0  0  0  0
   15.8219   21.1707   58.2580 O   0  0  0  0  0  0  0  0  0  0  0  0
   13.7905   21.7368   56.5340 O   0  0  0  0  0  0  0  0  0  0  0  0
   13.4423   19.6706   61.7783 O   0  0  0  0  0  0  0  0  0  0  0  0
   12.7670   19.9673   65.5780 O   0  0  0  0  0  0  0  0  0  0  0  0
   13.5928   21.4343   64.0118 O   0  0  0  0  0  0  0  0  0  0  0  0
   12.3119   20.6994   59.9768 N   0  0  0  0  0  0  0  0  0  0  0  0
   14.1749   21.5658   58.1698 P   0  0  1  0  0  0  0  0  0  0  0  0
  1 23  1  0
  1 22  1  6
  1  2  1  0
  2  3  1  6
  3  4  1  6
  4  5  1  6
 22 12  1  0
 12 19  2  0
 14 12  1  1
 14 13  1  0
 13 15  1  6
 15 20  2  0
 15 21  1  0
 23 16  2  0
 23 17  1  6
 23 18  1  0
 18 11  1  0
 11 10  1  0
 11  6  2  0
  6  7  1  0
  7  8  2  0
  8  9  1  0
  9 10  2  0
M  END
$$$$
