1a0q_ligand
     RDKit          3D

 23 23  0  0  0  0  0  0  0  0999 V2000
   13.0072   20.6419   59.4978 C   0  0  2  0  0  0  0  0  0  0  0  0
   12.0882   19.6009   58.8725 C   0  0  0  0  0  0  0  0  0  0  0  0
   11.6132   18.5895   59.8875 C   0  0  0  0  0  0  0  0  0  0  0  0
   11.3764   17.2734   59.1698 C   0  0  0  0  0  0  0  0  0  0  0  0
   10.4756   17.4378   57.9625 C   0  0  0  0  0  0  0  0  0  0  0  0
   14.9510   20.8955   54.5485 C   0  0  0  0  0  0  0  0  0  0  0  0
   15.8009   21.4215   53.5912 C   0  0  0  0  0  0  0  0  0  0  0  0
   16.8152   22.2692   53.9909 C   0  0  0  0  0  0  0  0  0  0  0  0
   16.9442   22.5622   55.3404 C   0  0  0  0  0  0  0  0  0  0  0  0
   16.0882   22.0301   56.2881 C   0  0  0  0  0  0  0  0  0  0  0  0
   15.0627   21.1734   55.8857 C   0  0  0  0  0  0  0  0  0  0  0  0
   12.4989   21.0715   61.8538 C   0  0  0  0  0  0  0  0  0  0  0  0
   11.7852   21.1259   64.2314 C   0  0  0  0  0  0  0  0  0  0  0  0
   11.3949   21.3418   62.8073 C   0  0  0  0  0  0  0  0  0  0  0  0
   11.5071   19.7077   64.5822 C   0  0  0  0  0  0  0  0  0  0  0  0
   13.0937   22.8098   57.9379 O   0  0  0  0  0  0  0  0  0  0  0  0
   15.3462   22.0474   58.8642 O   0  0  0  0  0  0  0  0  0  0  0  0
   14.2038   20.6388   56.8320 O   0  0  0  0  0  0  0  0  0  0  0  0
   13.5381   20.5239   62.3466 O   0  0  0  0  0  0  0  0  0  0  0  0
   12.3496   18.8472   64.1849 O   0  0  0  0  0  0  0  0  0  0  0  0
   10.3959   19.3156   65.3034 O   0  0  0  0  0  0  0  0  0  0  0  0
   12.3602   21.4156   60.5029 N   0  0  0  0  0  0  0  0  0  0  0  0
   13.8621   21.5399   58.2191 P   0  0  1  0  0  0  0  0  0  0  0  0
  1 23  1  0
  1 22  1  6
  1  2  1  0
  2  3  1  6
  3  4  1  6
  4  5  1  6
 22 12  1  0
 12 19  2  0
 14 12  1  1
 14 13  1  0
 13 15  1  6
 15 20  2  0
 15 21  1  0
 23 16  2  0
 23 17  1  1
 23 18  1  0
 18 11  1  0
 11 10  1  0
 11  6  2  0
  6  7  1  0
  7  8  2  0
  8  9  1  0
  9 10  2  0
M  END
$$$$
