1a0q_ligand
     RDKit          3D

 23 23  0  0  0  0  0  0  0  0999 V2000
   12.8605   20.4573   59.3772 C   0  0  2  0  0  0  0  0  0  0  0  0
   11.9035   19.6370   58.5225 C   0  0  0  0  0  0  0  0  0  0  0  0
   11.7149   18.2434   59.0712 C   0  0  0  0  0  0  0  0  0  0  0  0
   10.9504   17.4291   58.0438 C   0  0  0  0  0  0  0  0  0  0  0  0
   11.8589   16.8801   56.9625 C   0  0  0  0  0  0  0  0  0  0  0  0
   16.5593   22.0720   56.5404 C   0  0  0  0  0  0  0  0  0  0  0  0
   17.2975   22.7802   55.6082 C   0  0  0  0  0  0  0  0  0  0  0  0
   16.9406   22.7056   54.2762 C   0  0  0  0  0  0  0  0  0  0  0  0
   15.8528   21.9215   53.9220 C   0  0  0  0  0  0  0  0  0  0  0  0
   15.1225   21.2180   54.8632 C   0  0  0  0  0  0  0  0  0  0  0  0
   15.4819   21.2925   56.2095 C   0  0  0  0  0  0  0  0  0  0  0  0
   12.4780   20.7556   61.7768 C   0  0  0  0  0  0  0  0  0  0  0  0
   11.8088   20.4599   64.1496 C   0  0  0  0  0  0  0  0  0  0  0  0
   11.5737   21.1904   62.8697 C   0  0  0  0  0  0  0  0  0  0  0  0
   11.1449   19.1323   64.0587 C   0  0  0  0  0  0  0  0  0  0  0  0
   13.0699   22.5795   57.7670 O   0  0  0  0  0  0  0  0  0  0  0  0
   15.0520   22.2017   59.3294 O   0  0  0  0  0  0  0  0  0  0  0  0
   14.7529   20.5894   57.1546 O   0  0  0  0  0  0  0  0  0  0  0  0
   13.4784   20.0506   62.1299 O   0  0  0  0  0  0  0  0  0  0  0  0
    9.9484   19.1217   63.6388 O   0  0  0  0  0  0  0  0  0  0  0  0
   11.7731   17.9522   64.4068 O   0  0  0  0  0  0  0  0  0  0  0  0
   12.2065   21.1231   60.4525 N   0  0  0  0  0  0  0  0  0  0  0  0
   13.9031   21.4531   58.3314 P   0  0  1  0  0  0  0  0  0  0  0  0
  1 23  1  0
  1 22  1  1
  1  2  1  0
  2  3  1  6
  3  4  1  6
  4  5  1  6
 22 12  1  0
 12 19  2  0
 14 12  1  1
 14 13  1  0
 13 15  1  6
 15 20  2  0
 15 21  1  0
 23 16  2  0
 23 17  1  1
 23 18  1  0
 18 11  1  0
 11 10  1  0
 11  6  2  0
  6  7  1  0
  7  8  2  0
  8  9  1  0
  9 10  2  0
M  END
$$$$
