1a0q_ligand
     RDKit          3D

 23 23  0  0  0  0  0  0  0  0999 V2000
   12.6501   20.2271   59.1126 C   0  0  2  0  0  0  0  0  0  0  0  0
   11.4107   19.8810   58.2982 C   0  0  0  0  0  0  0  0  0  0  0  0
   10.5680   18.8294   58.9783 C   0  0  0  0  0  0  0  0  0  0  0  0
   10.9792   17.4715   58.4398 C   0  0  0  0  0  0  0  0  0  0  0  0
   10.1551   16.3490   59.0373 C   0  0  0  0  0  0  0  0  0  0  0  0
   15.0773   22.0545   55.3984 C   0  0  0  0  0  0  0  0  0  0  0  0
   15.9723   22.3713   54.3913 C   0  0  0  0  0  0  0  0  0  0  0  0
   17.0636   23.1626   54.6912 C   0  0  0  0  0  0  0  0  0  0  0  0
   17.2220   23.6112   55.9940 C   0  0  0  0  0  0  0  0  0  0  0  0
   16.3204   23.2878   56.9923 C   0  0  0  0  0  0  0  0  0  0  0  0
   15.2172   22.4882   56.6908 C   0  0  0  0  0  0  0  0  0  0  0  0
   12.9395   21.0593   61.3967 C   0  0  0  0  0  0  0  0  0  0  0  0
   12.7639   21.2827   63.8634 C   0  0  0  0  0  0  0  0  0  0  0  0
   12.3919   21.8430   62.5312 C   0  0  0  0  0  0  0  0  0  0  0  0
   11.6312   20.4537   64.3546 C   0  0  0  0  0  0  0  0  0  0  0  0
   15.2324   19.8071   58.5680 O   0  0  0  0  0  0  0  0  0  0  0  0
   13.6761   19.7730   56.5457 O   0  0  0  0  0  0  0  0  0  0  0  0
   14.3124   22.1624   57.6879 O   0  0  0  0  0  0  0  0  0  0  0  0
   13.9038   20.2754   61.6761 O   0  0  0  0  0  0  0  0  0  0  0  0
   10.6809   21.0692   64.9255 O   0  0  0  0  0  0  0  0  0  0  0  0
   11.5872   19.0803   64.2113 O   0  0  0  0  0  0  0  0  0  0  0  0
   12.3958   21.2068   60.1140 N   0  0  0  0  0  0  0  0  0  0  0  0
   14.0248   20.5319   58.0218 P   0  0  1  0  0  0  0  0  0  0  0  0
  1 23  1  0
  1 22  1  6
  1  2  1  0
  2  3  1  6
  3  4  1  6
  4  5  1  6
 22 12  1  0
 12 19  2  0
 14 12  1  1
 14 13  1  0
 13 15  1  6
 15 20  2  0
 15 21  1  0
 23 16  2  0
 23 17  1  6
 23 18  1  0
 18 11  1  0
 11 10  1  0
 11  6  2  0
  6  7  1  0
  7  8  2  0
  8  9  1  0
  9 10  2  0
M  END
$$$$
