B9K
     RDKit          3D

 27 30  0  0  0  0  0  0  0  0999 V2000
    8.5851   31.7948   13.1146 C   0  0  0  0  0  0  0  0  0  0  0  0
    6.9475   33.1579   15.0598 C   0  0  0  0  0  0  0  0  0  0  0  0
    6.6425   33.1535   13.5552 C   0  0  0  0  0  0  0  0  0  0  0  0
    8.9411   30.6982   18.6496 C   0  0  0  0  0  0  0  0  0  0  0  0
    6.8698   31.4656   19.0345 C   0  0  0  0  0  0  0  0  0  0  0  0
   10.8387   35.8229    9.4380 C   0  0  0  0  0  0  0  0  0  0  0  0
    9.3776   36.2785    9.5510 C   0  0  0  0  0  0  0  0  0  0  0  0
    8.5336   35.1530    9.8347 N   0  0  0  0  0  0  0  0  0  0  0  0
    8.8393   34.6686   11.1775 C   0  0  0  0  0  0  0  0  0  0  0  0
   10.2828   34.1407   11.0747 C   0  0  0  0  0  0  0  0  0  0  0  0
   11.2205   35.3157   10.8280 C   0  0  0  0  0  0  0  0  0  0  0  0
   12.6399   34.8119   10.8508 C   0  0  0  0  0  0  0  0  0  0  0  0
   13.5748   35.6602   10.1633 N   0  0  0  0  0  0  0  0  0  0  0  0
   14.2136   36.5202   11.1099 C   0  0  0  0  0  0  0  0  0  0  0  0
   13.6236   36.2144   12.3990 N   0  0  0  0  0  0  0  0  0  0  0  0
   13.1605   34.8345   12.2594 C   0  0  0  0  0  0  0  0  0  0  0  0
   14.3253   33.8761   12.3973 C   0  0  0  0  0  0  0  0  0  0  0  0
   15.9944   36.1183   11.2653 S   0  0  0  0  0  0  0  0  0  0  0  0
   16.2029   35.2391   12.8364 C   0  0  0  0  0  0  0  0  0  0  0  0
    8.0370   33.5566   11.5494 N   0  0  0  0  0  0  0  0  0  0  0  0
    8.0344   33.1621   12.9049 C   0  0  0  0  0  0  0  0  0  0  0  0
    8.7633   31.4605   14.5804 C   0  0  0  0  0  0  0  0  0  0  0  0
    7.5553   31.8422   15.3966 C   0  0  0  0  0  0  0  0  0  0  0  0
    7.8126   31.7533   16.7928 N   0  0  0  0  0  0  0  0  0  0  0  0
    8.5126   30.5846   17.2145 C   0  0  0  0  0  0  0  0  0  0  0  0
    8.1978   31.6007   19.3881 O   0  0  0  0  0  0  0  0  0  0  0  0
    6.6908   31.9989   17.6444 C   0  0  0  0  0  0  0  0  0  0  0  0
  3  2  1  0
  7  6  1  0
  8  7  1  0
  9  8  1  0
 10  9  1  0
 11 10  1  0
 11  6  1  0
 12 11  1  0
 13 12  1  0
 14 13  1  0
 15 14  1  0
 16 15  1  0
 16 12  1  0
 17 16  1  0
 18 14  1  0
 19 18  1  0
 20  9  1  0
 21  1  1  0
 21 20  1  0
 21  3  1  0
 22  1  1  0
 23 22  1  0
 23  2  1  0
 24 23  1  0
 25 24  1  0
 25  4  1  0
 26  5  1  0
 26  4  1  0
 27 24  1  0
 27  5  1  0
M  END
$$$$
