@<TRIPOS>MOLECULE
B9K
 27 30 0 0 0
SMALL
GASTEIGER

@<TRIPOS>ATOM
      1 C           8.6920   32.4010   13.2140 C.3     1  UNL1        0.0188
      2 C           6.8620   33.3120   15.1120 C.3     1  UNL1        0.0174
      3 C           6.9540   33.9370   13.8800 C.3     1  UNL1        0.0188
      4 C           6.8290   31.5920   19.1870 C.3     1  UNL1        0.1595
      5 C           8.7720   30.4250   18.7280 C.3     1  UNL1        0.1595
      6 C          11.2230   35.3610    9.4460 C.3     1  UNL1        0.0204
      7 C           9.9350   35.4350    8.9940 C.3     1  UNL1        0.0903
      8 N           8.9330   35.0500    9.7610 N.3     1  UNL1       -0.2023
      9 C           9.1080   34.5740   10.9720 C.3     1  UNL1        0.1450
     10 C          10.3920   34.4860   11.5070 C.3     1  UNL1        0.0368
     11 C          11.4790   34.9020   10.7260 C.3     1  UNL1        0.0218
     12 C          12.7730   34.7860   11.2390 C.3     1  UNL1        0.0912
     13 N          13.1200   33.9110   12.1790 N.3     1  UNL1       -0.1927
     14 C          14.3980   34.0590   12.4230 C.3     1  UNL1        0.1957
     15 N          14.9120   34.9800   11.6520 N.3     1  UNL1       -0.1927
     16 C          13.9500   35.4620   10.8900 C.3     1  UNL1        0.0911
     17 C          14.1770   36.5730    9.8730 C.3     1  UNL1        0.0204
     18 S          15.3090   33.1090   13.6310 S.3     1  UNL1       -0.1052
     19 C          17.0600   33.1810   13.1680 C.3     1  UNL1        0.0720
     20 N           7.8950   34.1820   11.6730 N.3     1  UNL1       -0.2037
     21 C           7.8700   33.4910   12.9360 C.3     1  UNL1        0.0743
     22 C           8.6240   31.7770   14.4530 C.3     1  UNL1        0.0174
     23 C           7.6980   32.2250   15.4220 C.3     1  UNL1        0.0577
     24 N           7.6160   31.5710   16.7340 N.3     1  UNL1       -0.2698
     25 C           6.8050   32.2280   17.8060 C.3     1  UNL1        0.1046
     26 O           8.1360   31.3160   19.5730 O.3     1  UNL1       -0.3508
     27 C           8.8450   30.9430   17.2850 C.3     1  UNL1        0.1046
@<TRIPOS>BOND
     1     3     2    1
     2     7     6    1
     3     8     7    1
     4     9     8    1
     5     9    20    1
     6    10     9    1
     7    11    10    1
     8    11     6    1
     9    12    11    1
    10    12    13    1
    11    14    13    1
    12    14    18    1
    13    15    14    1
    14    16    15    1
    15    16    12    1
    16    16    17    1
    17    19    18    1
    18    21     1    1
    19    21    20    1
    20    21     3    1
    21    22     1    1
    22    23    22    1
    23    23     2    1
    24    24    23    1
    25    25    24    1
    26    25     4    1
    27    26     5    1
    28    26     4    1
    29    27    24    1
    30    27     5    1
