@<TRIPOS>MOLECULE
8 ENGINEERED: YES
 35 40 0 0 0
SMALL
GASTEIGER

@<TRIPOS>ATOM
      1 C           8.2943   24.2229   36.5720 C.3     1  UNL1        0.0000
      2 C           7.3222   24.4182   35.6443 C.3     1  UNL1        0.0001
      3 C           7.3583   23.6915   34.3782 C.3     1  UNL1        0.0013
      4 C           8.3920   22.8115   34.1612 C.3     1  UNL1        0.0000
      5 C           9.3602   22.6496   35.1093 C.3     1  UNL1        0.0000
      6 C           9.2994   23.3370   36.2929 C.3     1  UNL1        0.0000
      7 C           6.3673   23.9018   33.4471 C.3     1  UNL1        0.0161
      8 C           5.3269   24.7689   33.6163 C.3     1  UNL1        0.0623
      9 C           5.3456   25.4186   34.8411 C.3     1  UNL1        0.0161
     10 C           6.2996   25.2766   35.8327 C.3     1  UNL1        0.0014
     11 N           4.3887   24.9542   32.6990 N.3     1  UNL1       -0.2209
     12 C           4.0202   26.1029   32.1529 C.3     1  UNL1        0.1525
     13 N           3.0356   25.8108   31.3188 N.3     1  UNL1       -0.1285
     14 N           2.8579   24.4883   31.3549 N.3     1  UNL1       -0.1633
     15 C           3.7069   23.9982   32.2009 C.3     1  UNL1        0.2926
     16 O           3.8417   22.7960   32.5262 O.3     1  UNL1       -0.1843
     17 C           1.8161   24.0630   30.4378 C.3     1  UNL1        0.0829
     18 C           0.6141   23.4922   31.0803 C.3     1  UNL1        0.0497
     19 C          -0.4631   23.5444   30.0584 C.3     1  UNL1        0.1436
     20 O          -0.1517   22.6465   29.0423 O.3     1  UNL1       -0.3537
     21 C           1.1187   22.8094   28.4325 C.3     1  UNL1        0.1436
     22 C           2.2533   23.0929   29.3929 C.3     1  UNL1        0.0497
     23 C           4.4418   27.5101   32.3471 C.3     1  UNL1        0.0373
     24 C           5.7049   27.8254   32.7167 C.3     1  UNL1        0.0218
     25 C           6.0522   29.1262   32.8652 C.3     1  UNL1        0.0903
     26 N           5.2130   30.0930   32.6820 N.3     1  UNL1       -0.2023
     27 C           3.9623   29.8536   32.3061 C.3     1  UNL1        0.1450
     28 C           3.5712   28.5476   32.1324 C.3     1  UNL1        0.0382
     29 N           3.1554   30.8974   32.1358 N.3     1  UNL1       -0.2037
     30 C           1.8656   30.8684   31.5408 C.3     1  UNL1        0.0743
     31 C           1.1371   32.1330   31.8922 C.3     1  UNL1        0.0174
     32 C          -0.2036   32.1817   31.2075 C.3     1  UNL1        0.0014
     33 C          -0.1100   32.1148   29.7121 C.3     1  UNL1        0.0001
     34 C           0.6668   30.8845   29.3395 C.3     1  UNL1        0.0014
     35 C           2.0021   30.7861   30.0420 C.3     1  UNL1        0.0174
@<TRIPOS>BOND
     1     1     2    1
     2     1     6    1
     3     2     3    1
     4     2    10    1
     5     3     4    1
     6     3     7    1
     7     4     5    1
     8     5     6    1
     9     7     8    1
    10     8     9    1
    11     8    11    1
    12     9    10    1
    13    11    12    1
    14    11    15    1
    15    12    13    1
    16    12    23    1
    17    13    14    1
    18    14    15    1
    19    17    14    1
    20    15    16    1
    21    17    18    1
    22    17    22    1
    23    18    19    1
    24    19    20    1
    25    20    21    1
    26    21    22    1
    27    23    24    1
    28    23    28    1
    29    24    25    1
    30    25    26    1
    31    26    27    1
    32    27    28    1
    33    27    29    1
    34    30    29    1
    35    30    31    1
    36    30    35    1
    37    31    32    1
    38    32    33    1
    39    33    34    1
    40    34    35    1
