
     RDKit          3D

 38 43  0  0  0  0  0  0  0  0999 V2000
   -7.4704   -1.4401    0.6030 O   0  0  0  0  0  0  0  0  0  0  0  0
   -6.5842   -1.1085    1.4593 C   0  0  0  0  0  0  0  0  0  0  0  0
   -7.0703   -0.9060    2.8437 C   0  0  2  0  0  0  0  0  0  0  0  0
   -8.4984   -0.4602    2.9599 C   0  0  0  0  0  0  0  0  0  0  0  0
   -7.3554    0.4797    3.2954 C   0  0  0  0  0  0  0  0  0  0  0  0
   -5.2383   -0.9578    1.0572 N   0  0  0  0  0  0  0  0  0  0  0  0
   -4.7766   -1.0428   -0.3122 C   0  0  0  0  0  0  0  0  0  0  0  0
   -3.3726   -1.6633   -0.3433 C   0  0  0  0  0  0  0  0  0  0  0  0
   -2.4091   -0.6863    0.3143 C   0  0  2  0  0  0  0  0  0  0  0  0
   -1.2719   -1.3810    0.9833 C   0  0  0  0  0  0  0  0  0  0  0  0
   -0.2514   -1.8978    0.1464 N   0  0  0  0  0  0  0  0  0  0  0  0
    1.0217   -2.3579    0.5340 C   0  0  0  0  0  0  0  0  0  0  0  0
    2.1593   -1.7085    0.1362 N   0  0  0  0  0  0  0  0  0  0  0  0
    3.3919   -2.1021    0.4608 C   0  0  0  0  0  0  0  0  0  0  0  0
    3.5751   -3.2077    1.2301 N   0  0  0  0  0  0  0  0  0  0  0  0
    2.4999   -3.9156    1.6708 C   0  0  0  0  0  0  0  0  0  0  0  0
    1.2396   -3.4772    1.3140 C   0  0  0  0  0  0  0  0  0  0  0  0
    4.5602   -1.3556   -0.0033 C   0  0  0  0  0  0  0  0  0  0  0  0
    5.6263   -1.3846    0.7002 N   0  0  0  0  0  0  0  0  0  0  0  0
    6.9007   -0.7469    0.4745 C   0  0  0  0  0  0  0  0  0  0  0  0
    7.3481   -0.1676   -0.6261 C   0  0  0  0  0  0  0  0  0  0  0  0
    6.6258   -0.0412   -1.8996 C   0  0  0  0  0  0  0  0  0  0  0  0
    7.4103    0.3555   -2.9771 O   0  0  0  0  0  0  0  0  0  0  0  0
    5.3475   -0.2435   -2.1914 C   0  0  0  0  0  0  0  0  0  0  0  0
    4.9356   -0.0456   -3.4966 O   0  0  0  0  0  0  0  0  0  0  0  0
    4.3666   -0.6554   -1.2330 N   0  0  0  0  0  0  0  0  0  0  0  0
    8.6884    0.4333   -0.6571 C   0  0  2  0  0  0  0  0  0  0  0  0
    9.7585   -0.4187   -1.2516 C   0  0  0  0  0  0  0  0  0  0  0  0
   10.9412    0.3920   -1.3350 O   0  0  0  0  0  0  0  0  0  0  0  0
   11.2416    1.2354   -0.2783 C   0  0  0  0  0  0  0  0  0  0  0  0
   12.4592    1.8846   -0.2223 C   0  0  0  0  0  0  0  0  0  0  0  0
   12.7773    2.7397    0.8386 C   0  0  0  0  0  0  0  0  0  0  0  0
   11.8693    2.9493    1.8555 C   0  0  0  0  0  0  0  0  0  0  0  0
   10.6352    2.3009    1.8132 C   0  0  0  0  0  0  0  0  0  0  0  0
   10.3424    1.4521    0.7426 C   0  0  0  0  0  0  0  0  0  0  0  0
    9.1280    0.7882    0.6618 O   0  0  0  0  0  0  0  0  0  0  0  0
   -3.1380    0.1279    1.3769 C   0  0  0  0  0  0  0  0  0  0  0  0
   -4.2101   -0.6929    2.0666 C   0  0  0  0  0  0  0  0  0  0  0  0
  1  2  2  0
  3  2  1  6
  3  4  1  0
  4  5  1  6
  2  6  1  0
  7  6  1  1
  8  7  1  1
  8  9  1  0
  9 10  1  1
 10 11  1  6
 11 12  1  0
 12 13  2  0
 13 14  1  0
 14 15  2  0
 15 16  1  0
 16 17  2  0
 14 18  1  0
 18 19  2  0
 19 20  1  0
 20 21  2  0
 21 22  1  0
 22 23  1  0
 22 24  2  0
 24 25  1  0
 24 26  1  0
 27 21  1  1
 27 28  1  0
 28 29  1  6
 29 30  1  0
 30 31  2  0
 31 32  1  0
 32 33  2  0
 33 34  1  0
 34 35  2  0
 35 36  1  0
  9 37  1  0
 37 38  1  1
  5  3  1  6
 38  6  1  1
 17 12  1  0
 26 18  1  0
 36 27  1  0
 35 30  1  0
M  END
$$$$
