
     RDKit          3D

 34 39  0  0  1  0  0  0  0  0999 V2000
   -2.2258   25.2306   26.5064 O   0  0  0  0  0  0  0  0  0  0  0  0
   -1.6568   25.3554   27.6051 C   0  0  0  0  0  0  0  0  0  0  0  0
   -0.8718   24.3157   28.1058 N   0  0  0  0  0  0  0  0  0  0  0  0
    0.3286   24.7541   28.8848 C   0  0  0  0  0  0  0  0  0  0  0  0
   -0.2379   25.7102   29.9016 C   0  0  1  0  0  0  0  0  0  0  0  0
    0.7276   26.0646   30.9712 C   0  0  0  0  0  0  0  0  0  0  0  0
    1.6049   27.1071   30.6112 N   0  0  0  0  0  0  0  0  0  0  0  0
    2.7103   27.6268   31.3216 C   0  0  0  0  0  0  0  0  0  0  0  0
    3.0115   28.9468   31.3599 N   0  0  0  0  0  0  0  0  0  0  0  0
    4.0526   29.4322   32.0434 C   0  0  0  0  0  0  0  0  0  0  0  0
    4.8304   28.5056   32.7269 C   0  0  0  0  0  0  0  0  0  0  0  0
    4.5737   27.1543   32.7243 C   0  0  0  0  0  0  0  0  0  0  0  0
    5.3374   26.1885   33.4131 N   0  0  0  0  0  0  0  0  0  0  0  0
    5.3004   24.7683   33.3786 C   0  0  0  0  0  0  0  0  0  0  0  0
    4.8893   23.9066   32.3861 C   0  0  0  0  0  0  0  0  0  0  0  0
    4.9309   22.5382   32.6078 C   0  0  0  0  0  0  0  0  0  0  0  0
    4.5070   21.7070   31.5898 C   0  0  0  0  0  0  0  0  0  0  0  0
    4.5389   20.3369   31.7955 C   0  0  0  0  0  0  0  0  0  0  0  0
    4.9969   19.8425   33.0206 C   0  0  0  0  0  0  0  0  0  0  0  0
    5.4201   20.6977   34.0340 C   0  0  0  0  0  0  0  0  0  0  0  0
    5.3843   22.0737   33.8180 C   0  0  0  0  0  0  0  0  0  0  0  0
    5.8050   22.9446   34.8311 C   0  0  0  0  0  0  0  0  0  0  0  0
    5.7663   24.3046   34.6179 C   0  0  0  0  0  0  0  0  0  0  0  0
    6.1357   25.4432   35.4211 N   0  0  0  0  0  0  0  0  0  0  0  0
    6.3907   26.4864   34.4080 C   0  0  0  0  0  3  0  0  0  0  0  0
    7.6449   26.1210   33.8594 O   0  0  0  0  0  0  0  0  0  0  0  0
    3.5005   26.7532   32.0075 N   0  0  0  0  0  0  0  0  0  0  0  0
   -0.5696   26.9891   29.1134 C   0  0  0  0  0  0  0  0  0  0  0  0
   -1.8476   26.6483   28.3530 C   0  0  0  0  0  0  0  0  0  0  0  0
   -1.0358   22.9406   28.0040 C   0  0  0  0  0  0  0  0  0  0  0  0
   -0.2032   22.2996   28.8193 O   0  0  0  0  0  0  0  0  0  0  0  0
   -1.8708   22.0405   27.2526 C   0  0  2  0  0  0  0  0  0  0  0  0
   -2.4286   20.7361   27.6356 C   0  0  0  0  0  0  0  0  0  0  0  0
   -1.2585   20.7429   26.7380 C   0  0  0  0  0  0  0  0  0  0  0  0
  1  2  2  0
  2  3  1  0
 29  2  1  6
  4  3  1  1
  3 30  1  0
  4  5  1  0
  5 28  1  0
  5  6  1  1
  6  7  1  1
  7  8  1  0
  8  9  2  0
  8 27  1  0
  9 10  1  0
 10 11  2  0
 11 12  1  0
 12 13  1  0
 12 27  2  0
 13 14  1  0
 13 25  1  0
 14 15  2  0
 14 23  1  0
 15 16  1  0
 16 17  2  0
 16 21  1  0
 17 18  1  0
 18 19  2  0
 19 20  1  0
 20 21  2  0
 21 22  1  0
 22 23  2  0
 23 24  1  0
 24 25  1  0
 25 26  1  0
 28 29  1  6
 30 31  2  0
 32 30  1  1
 33 32  1  1
 32 34  1  0
 34 33  1  1
M  RAD  1  25   2
M  END
$$$$
