8 ENGINEERED: YES
     RDKit          3D

 35 40  0  0  0  0  0  0  0  0999 V2000
    8.3616   24.1214   34.0111 C   0  0  0  0  0  0  0  0  0  0  0  0
    7.1862   24.6312   33.2520 C   0  0  0  0  0  0  0  0  0  0  0  0
    6.2486   23.5327   32.8029 C   0  0  0  0  0  0  0  0  0  0  0  0
    6.9532   22.4346   32.0688 C   0  0  0  0  0  0  0  0  0  0  0  0
    8.1982   21.9601   32.7674 C   0  0  0  0  0  0  0  0  0  0  0  0
    9.0905   23.0910   33.1978 C   0  0  0  0  0  0  0  0  0  0  0  0
    5.3154   24.1935   31.8001 C   0  0  0  0  0  0  0  0  0  0  0  0
    4.4438   25.1422   32.5941 C   0  0  0  0  0  0  0  0  0  0  0  0
    5.2495   26.2153   33.2736 C   0  0  0  0  0  0  0  0  0  0  0  0
    6.3700   25.6039   34.0753 C   0  0  0  0  0  0  0  0  0  0  0  0
    3.3812   25.5569   31.7867 N   0  0  0  0  0  0  0  0  0  0  0  0
    3.7159   26.3394   30.6369 C   0  0  0  0  0  0  0  0  0  0  0  0
    2.3706   26.5176   30.0622 N   0  0  0  0  0  0  0  0  0  0  0  0
    1.7187   25.3119   30.3157 N   0  0  0  0  0  0  0  0  0  0  0  0
    2.4949   24.5560   31.2568 C   0  0  0  0  0  0  0  0  0  0  0  0
    1.7687   23.9217   32.2363 O   0  0  0  0  0  0  0  0  0  0  0  0
    0.4177   25.6001   30.8423 C   0  0  2  0  0  0  0  0  0  0  0  0
   -0.3644   24.4448   31.3562 C   0  0  0  0  0  0  0  0  0  0  0  0
   -0.1809   23.2901   30.3836 C   0  0  0  0  0  0  0  0  0  0  0  0
   -0.1540   23.8472   29.1041 O   0  0  0  0  0  0  0  0  0  0  0  0
   -0.9696   24.9588   28.9650 C   0  0  0  0  0  0  0  0  0  0  0  0
   -0.4148   26.1857   29.6825 C   0  0  0  0  0  0  0  0  0  0  0  0
    4.3045   27.6693   30.9968 C   0  0  0  0  0  0  0  0  0  0  0  0
    4.7503   27.6939   32.4406 C   0  0  0  0  0  0  0  0  0  0  0  0
    4.9172   29.1808   32.7833 C   0  0  0  0  0  0  0  0  0  0  0  0
    3.5756   29.6877   33.0046 N   0  0  0  0  0  0  0  0  0  0  0  0
    2.7075   29.3980   31.9086 C   0  0  0  0  0  0  0  0  0  0  0  0
    3.3827   28.8029   30.7032 C   0  0  0  0  0  0  0  0  0  0  0  0
    1.9341   30.5202   31.4441 N   0  0  0  0  0  0  0  0  0  0  0  0
    0.7025   30.1784   30.7955 C   0  0  1  0  0  0  0  0  0  0  0  0
   -0.5357   30.5652   31.5353 C   0  0  0  0  0  0  0  0  0  0  0  0
   -1.5748   31.0520   30.5519 C   0  0  0  0  0  0  0  0  0  0  0  0
   -1.1033   32.4085   30.0429 C   0  0  0  0  0  0  0  0  0  0  0  0
    0.2468   32.2098   29.3912 C   0  0  0  0  0  0  0  0  0  0  0  0
    0.6818   30.7710   29.4152 C   0  0  0  0  0  0  0  0  0  0  0  0
  1  2  1  0
  1  6  1  0
  2  3  1  0
  2 10  1  0
  3  4  1  0
  3  7  1  0
  4  5  1  0
  5  6  1  0
  7  8  1  0
  8  9  1  0
  8 11  1  0
  9 10  1  0
 11 12  1  0
 11 15  1  0
 12 13  1  0
 12 23  1  0
 13 14  1  0
 14 15  1  0
 17 14  1  6
 15 16  1  0
 17 18  1  0
 17 22  1  0
 18 19  1  0
 19 20  1  0
 20 21  1  0
 21 22  1  0
 23 24  1  0
 23 28  1  0
 24 25  1  0
 25 26  1  0
 26 27  1  0
 27 28  1  0
 27 29  1  0
 30 29  1  1
 30 31  1  0
 30 35  1  0
 31 32  1  0
 32 33  1  0
 33 34  1  0
 34 35  1  0
M  END
$$$$
