
     RDKit          3D

 38 43  0  0  0  0  0  0  0  0999 V2000
   -1.7016   32.7589   32.3607 O   0  0  0  0  0  0  0  0  0  0  0  0
   -1.0509   32.4269   31.3144 C   0  0  0  0  0  0  0  0  0  0  0  0
   -1.6677   32.8103   30.0236 C   0  0  2  0  0  0  0  0  0  0  0  0
   -2.1609   31.6664   29.1871 C   0  0  0  0  0  0  0  0  0  0  0  0
   -0.9463   32.4743   28.7698 C   0  0  0  0  0  0  0  0  0  0  0  0
    0.1762   31.7377   31.4376 N   0  0  0  0  0  0  0  0  0  0  0  0
    0.9515   31.6542   32.6573 C   0  0  0  0  0  0  0  0  0  0  0  0
    2.4479   31.6326   32.3143 C   0  0  0  0  0  0  0  0  0  0  0  0
    2.7487   30.3275   31.5921 C   0  0  2  0  0  0  0  0  0  0  0  0
    3.8685   30.4683   30.6176 C   0  0  0  0  0  0  0  0  0  0  0  0
    4.8149   29.4143   30.5681 N   0  0  0  0  0  0  0  0  0  0  0  0
    5.4609   28.7929   31.6541 C   0  0  0  0  0  0  0  0  0  0  0  0
    5.3727   27.4409   31.8494 N   0  0  0  0  0  0  0  0  0  0  0  0
    5.9517   26.7972   32.8644 C   0  0  0  0  0  0  0  0  0  0  0  0
    6.6813   27.4854   33.7818 N   0  0  0  0  0  0  0  0  0  0  0  0
    6.8224   28.8338   33.6661 C   0  0  0  0  0  0  0  0  0  0  0  0
    6.2082   29.4649   32.6021 C   0  0  0  0  0  0  0  0  0  0  0  0
    5.8115   25.3489   33.0068 C   0  0  0  0  0  0  0  0  0  0  0  0
    6.4881   24.7529   33.9120 N   0  0  0  0  0  0  0  0  0  0  0  0
    6.5354   23.3534   34.2601 C   0  0  0  0  0  0  0  0  0  0  0  0
    5.7215   22.3829   33.8822 C   0  0  0  0  0  0  0  0  0  0  0  0
    4.5553   22.5183   32.9986 C   0  0  0  0  0  0  0  0  0  0  0  0
    3.7078   21.4160   32.9799 O   0  0  0  0  0  0  0  0  0  0  0  0
    4.1769   23.5198   32.2151 C   0  0  0  0  0  0  0  0  0  0  0  0
    3.0143   23.3722   31.4809 O   0  0  0  0  0  0  0  0  0  0  0  0
    4.9023   24.7474   32.0840 N   0  0  0  0  0  0  0  0  0  0  0  0
    5.9400   21.0067   34.3481 C   0  0  2  0  0  0  0  0  0  0  0  0
    5.1624   20.6089   35.5570 C   0  0  0  0  0  0  0  0  0  0  0  0
    5.3883   19.2047   35.7568 O   0  0  0  0  0  0  0  0  0  0  0  0
    6.6663   18.7061   35.5666 C   0  0  0  0  0  0  0  0  0  0  0  0
    6.9766   17.4111   35.9328 C   0  0  0  0  0  0  0  0  0  0  0  0
    8.2631   16.8931   35.7469 C   0  0  0  0  0  0  0  0  0  0  0  0
    9.2514   17.6768   35.1890 C   0  0  0  0  0  0  0  0  0  0  0  0
    8.9537   18.9868   34.8140 C   0  0  0  0  0  0  0  0  0  0  0  0
    7.6612   19.4798   35.0103 C   0  0  0  0  0  0  0  0  0  0  0  0
    7.3230   20.7756   34.6519 O   0  0  0  0  0  0  0  0  0  0  0  0
    1.5205   29.8673   30.8157 C   0  0  0  0  0  0  0  0  0  0  0  0
    0.7332   31.0441   30.2736 C   0  0  0  0  0  0  0  0  0  0  0  0
  1  2  2  0
  3  2  1  1
  3  4  1  0
  4  5  1  6
  2  6  1  0
  7  6  1  1
  8  7  1  1
  8  9  1  0
  9 10  1  6
 10 11  1  6
 11 12  1  0
 12 13  2  0
 13 14  1  0
 14 15  2  0
 15 16  1  0
 16 17  2  0
 14 18  1  0
 18 19  2  0
 19 20  1  0
 20 21  2  0
 21 22  1  0
 22 23  1  0
 22 24  2  0
 24 25  1  0
 24 26  1  0
 27 21  1  1
 27 28  1  0
 28 29  1  6
 29 30  1  0
 30 31  2  0
 31 32  1  0
 32 33  2  0
 33 34  1  0
 34 35  2  0
 35 36  1  0
  9 37  1  0
 37 38  1  1
  5  3  1  6
 38  6  1  1
 17 12  1  0
 26 18  1  0
 36 27  1  0
 35 30  1  0
M  END
$$$$
