589
     RDKit          3D

 35 40  0  0  0  0  0  0  0  0999 V2000
    6.6942   -0.7731    1.3832 C   0  0  0  0  0  0  0  0  0  0  0  0
    5.5440   -0.6737    0.6309 C   0  0  0  0  0  0  0  0  0  0  0  0
    5.5456   -0.1569   -0.6326 C   0  0  0  0  0  0  0  0  0  0  0  0
    6.7231    0.2837   -1.1892 C   0  0  0  0  0  0  0  0  0  0  0  0
    7.9003    0.2065   -0.4791 C   0  0  0  0  0  0  0  0  0  0  0  0
    7.8692   -0.3261    0.8100 C   0  0  0  0  0  0  0  0  0  0  0  0
    4.3840   -0.0689   -1.3622 C   0  0  0  0  0  0  0  0  0  0  0  0
    3.1826   -0.5054   -0.8263 C   0  0  0  0  0  0  0  0  0  0  0  0
    3.2166   -1.0176    0.4418 C   0  0  0  0  0  0  0  0  0  0  0  0
    4.3583   -1.1165    1.1891 C   0  0  0  0  0  0  0  0  0  0  0  0
    2.0028   -0.3973   -1.6132 N   0  0  0  0  0  0  0  0  0  0  0  0
    1.0127    0.5092   -1.4859 C   0  0  0  0  0  0  0  0  0  0  0  0
    0.0943    0.2490   -2.4309 N   0  0  0  0  0  0  0  0  0  0  0  0
    0.4771   -0.7986   -3.1533 N   0  0  0  0  0  0  0  0  0  0  0  0
    1.6523   -1.1771   -2.6310 C   0  0  0  0  0  0  0  0  0  0  0  0
    2.3380   -2.1431   -3.0458 O   0  0  0  0  0  0  0  0  0  0  0  0
   -0.2897   -1.3309   -4.2466 C   0  0  2  0  0  0  0  0  0  0  0  0
   -0.8070   -0.2889   -5.1868 C   0  0  0  0  0  0  0  0  0  0  0  0
   -2.2751   -0.0325   -4.9142 C   0  0  0  0  0  0  0  0  0  0  0  0
   -2.9922   -1.1547   -5.3270 O   0  0  0  0  0  0  0  0  0  0  0  0
   -2.3914   -2.3489   -4.9499 C   0  0  0  0  0  0  0  0  0  0  0  0
   -1.4403   -2.2124   -3.8023 C   0  0  0  0  0  0  0  0  0  0  0  0
    0.9847    1.5667   -0.4858 C   0  0  0  0  0  0  0  0  0  0  0  0
    1.8923    1.6811    0.5364 C   0  0  0  0  0  0  0  0  0  0  0  0
    1.7307    2.7465    1.4099 C   0  0  0  0  0  0  0  0  0  0  0  0
    0.7302    3.6438    1.2780 N   0  0  0  0  0  0  0  0  0  0  0  0
   -0.1677    3.5525    0.2880 C   0  0  0  0  0  0  0  0  0  0  0  0
   -0.0305    2.5025   -0.5951 C   0  0  0  0  0  0  0  0  0  0  0  0
   -1.2215    4.4881    0.1398 N   0  0  0  0  0  0  0  0  0  0  0  0
   -2.2854    4.2296   -0.8107 C   0  0  1  0  0  0  0  0  0  0  0  0
   -3.3808    3.3840   -0.1937 C   0  0  0  0  0  0  0  0  0  0  0  0
   -4.4941    3.2727   -1.2055 C   0  0  0  0  0  0  0  0  0  0  0  0
   -5.1190    4.5988   -1.5242 C   0  0  0  0  0  0  0  0  0  0  0  0
   -4.3397    5.6738   -0.7975 C   0  0  0  0  0  0  0  0  0  0  0  0
   -2.8808    5.5420   -1.2206 C   0  0  0  0  0  0  0  0  0  0  0  0
  1  2  2  0
  1  6  1  0
  2  3  1  0
  2 10  1  0
  3  4  2  0
  3  7  1  0
  4  5  1  0
  5  6  2  0
  7  8  2  0
  8  9  1  0
  8 11  1  0
  9 10  2  0
 11 12  1  0
 11 15  1  0
 12 13  2  0
 12 23  1  0
 13 14  1  0
 14 15  1  0
 17 14  1  1
 15 16  2  0
 17 18  1  0
 17 22  1  0
 18 19  1  1
 19 20  1  1
 21 20  1  6
 22 21  1  1
 23 24  2  0
 23 28  1  0
 24 25  1  0
 25 26  2  0
 26 27  1  0
 27 28  2  0
 27 29  1  0
 30 29  1  1
 31 30  1  6
 30 35  1  0
 32 31  1  6
 33 32  1  6
 34 33  1  6
 35 34  1  1
M  END
$$$$
