3oy1
     RDKit          3D

 35 40  0  0  0  0  0  0  0  0999 V2000
  -17.5594   11.6898  -36.7028 C   0  0  0  0  0  0  0  0  0  0  0  0
  -18.5348   11.5246  -35.7602 C   0  0  0  0  0  0  0  0  0  0  0  0
  -18.5255   12.2668  -34.6001 C   0  0  0  0  0  0  0  0  0  0  0  0
  -17.5410   13.1962  -34.3481 C   0  0  0  0  0  0  0  0  0  0  0  0
  -16.5550   13.3633  -35.3008 C   0  0  0  0  0  0  0  0  0  0  0  0
  -16.5578   12.6233  -36.4653 C   0  0  0  0  0  0  0  0  0  0  0  0
  -19.5247   12.0825  -33.6583 C   0  0  0  0  0  0  0  0  0  0  0  0
  -20.5486   11.1574  -33.8551 C   0  0  0  0  0  0  0  0  0  0  0  0
  -20.5600   10.4186  -35.0070 C   0  0  0  0  0  0  0  0  0  0  0  0
  -19.5613   10.6056  -35.9440 C   0  0  0  0  0  0  0  0  0  0  0  0
  -21.5269   11.0445  -32.8262 N   0  0  0  0  0  0  0  0  0  0  0  0
  -21.8837    9.9374  -32.1504 C   0  0  0  0  0  0  0  0  0  0  0  0
  -22.8349   10.2687  -31.2744 N   0  0  0  0  0  0  0  0  0  0  0  0
  -23.1069   11.5767  -31.3661 N   0  0  0  0  0  0  0  0  0  0  0  0
  -22.2901   12.0349  -32.3278 C   0  0  0  0  0  0  0  0  0  0  0  0
  -22.2348   13.2097  -32.7156 O   0  0  0  0  0  0  0  0  0  0  0  0
  -24.0864   12.2505  -30.5579 C   0  0  2  0  0  0  0  0  0  0  0  0
  -24.1335   11.8368  -29.1307 C   0  0  0  0  0  0  0  0  0  0  0  0
  -25.0319   10.6266  -29.0208 C   0  0  0  0  0  0  0  0  0  0  0  0
  -26.3501   11.0832  -29.0734 O   0  0  0  0  0  0  0  0  0  0  0  0
  -26.4887   12.0981  -30.0129 C   0  0  0  0  0  0  0  0  0  0  0  0
  -25.4722   11.9775  -31.1300 C   0  0  0  0  0  0  0  0  0  0  0  0
  -21.3490    8.5906  -32.3154 C   0  0  0  0  0  0  0  0  0  0  0  0
  -20.0382    8.4504  -32.7719 C   0  0  0  0  0  0  0  0  0  0  0  0
  -19.4627    7.2030  -32.9530 C   0  0  0  0  0  0  0  0  0  0  0  0
  -20.2079    6.1024  -32.6741 N   0  0  0  0  0  0  0  0  0  0  0  0
  -21.4700    6.2323  -32.2345 C   0  0  0  0  0  0  0  0  0  0  0  0
  -22.0785    7.4499  -32.0415 C   0  0  0  0  0  0  0  0  0  0  0  0
  -22.2060    5.0497  -31.9576 N   0  0  0  0  0  0  0  0  0  0  0  0
  -23.5355    5.1483  -31.3652 C   0  0  1  0  0  0  0  0  0  0  0  0
  -24.3585    3.9074  -31.6936 C   0  0  0  0  0  0  0  0  0  0  0  0
  -25.7966    4.2376  -31.3147 C   0  0  0  0  0  0  0  0  0  0  0  0
  -25.8520    4.4071  -29.8140 C   0  0  0  0  0  0  0  0  0  0  0  0
  -24.4850    4.3810  -29.1847 C   0  0  0  0  0  0  0  0  0  0  0  0
  -23.4761    5.2522  -29.8572 C   0  0  0  0  0  0  0  0  0  0  0  0
  1  2  2  0
  2  3  1  0
  3  4  2  0
  4  5  1  0
  1  6  1  0
  5  6  2  0
  3  7  1  0
  7  8  2  0
  8  9  1  0
  2 10  1  0
  9 10  2  0
  8 11  1  0
 11 12  1  0
 12 13  2  0
 13 14  1  0
 11 15  1  0
 14 15  1  0
 15 16  2  0
 17 14  1  6
 17 18  1  0
 18 19  1  0
 19 20  1  0
 20 21  1  0
 17 22  1  0
 21 22  1  0
 12 23  1  0
 23 24  2  0
 24 25  1  0
 25 26  2  0
 26 27  1  0
 23 28  1  0
 27 28  2  0
 27 29  1  0
 30 29  1  1
 30 31  1  0
 31 32  1  0
 32 33  1  0
 33 34  1  0
 30 35  1  0
 34 35  1  0
M  END
$$$$
