3oy1
     RDKit          3D

 35 40  0  0  0  0  0  0  0  0999 V2000
  -16.8815   12.1587  -35.4310 C   0  0  0  0  0  0  0  0  0  0  0  0
  -17.9325   11.9272  -34.5890 C   0  0  0  0  0  0  0  0  0  0  0  0
  -18.9971   11.1505  -34.9892 C   0  0  0  0  0  0  0  0  0  0  0  0
  -19.0425   10.5822  -36.2428 C   0  0  0  0  0  0  0  0  0  0  0  0
  -17.9801   10.8161  -37.0939 C   0  0  0  0  0  0  0  0  0  0  0  0
  -16.9102   11.5932  -36.7000 C   0  0  0  0  0  0  0  0  0  0  0  0
  -20.0519   10.9293  -34.1187 C   0  0  0  0  0  0  0  0  0  0  0  0
  -20.0648   11.4768  -32.8369 C   0  0  0  0  0  0  0  0  0  0  0  0
  -19.0081   12.2489  -32.4370 C   0  0  0  0  0  0  0  0  0  0  0  0
  -17.9578   12.4672  -33.3084 C   0  0  0  0  0  0  0  0  0  0  0  0
  -21.1957   11.1891  -32.0204 N   0  0  0  0  0  0  0  0  0  0  0  0
  -21.6584    9.9798  -31.6551 C   0  0  0  0  0  0  0  0  0  0  0  0
  -22.7372   10.1570  -30.8892 N   0  0  0  0  0  0  0  0  0  0  0  0
  -22.9885   11.4646  -30.7470 N   0  0  0  0  0  0  0  0  0  0  0  0
  -22.0272   12.0820  -31.4518 C   0  0  0  0  0  0  0  0  0  0  0  0
  -21.9081   13.3087  -31.5720 O   0  0  0  0  0  0  0  0  0  0  0  0
  -24.0838   11.9917  -29.9794 C   0  0  2  0  0  0  0  0  0  0  0  0
  -25.2012   12.5702  -30.7713 C   0  0  0  0  0  0  0  0  0  0  0  0
  -24.8637   14.0108  -31.0791 C   0  0  0  0  0  0  0  0  0  0  0  0
  -25.1182   14.7517  -29.9236 O   0  0  0  0  0  0  0  0  0  0  0  0
  -24.7103   14.0608  -28.7888 C   0  0  0  0  0  0  0  0  0  0  0  0
  -23.5668   13.1118  -29.0846 C   0  0  0  0  0  0  0  0  0  0  0  0
  -21.1066    8.6780  -32.0122 C   0  0  0  0  0  0  0  0  0  0  0  0
  -19.8110    8.6270  -32.5268 C   0  0  0  0  0  0  0  0  0  0  0  0
  -19.2207    7.4265  -32.8881 C   0  0  0  0  0  0  0  0  0  0  0  0
  -19.9360    6.2829  -32.7302 N   0  0  0  0  0  0  0  0  0  0  0  0
  -21.1835    6.3270  -32.2352 C   0  0  0  0  0  0  0  0  0  0  0  0
  -21.8057    7.4956  -31.8648 C   0  0  0  0  0  0  0  0  0  0  0  0
  -21.8883    5.1025  -32.0902 N   0  0  0  0  0  0  0  0  0  0  0  0
  -23.2136    5.0997  -31.4805 C   0  0  1  0  0  0  0  0  0  0  0  0
  -23.7827    3.6855  -31.4492 C   0  0  0  0  0  0  0  0  0  0  0  0
  -25.2583    3.8279  -31.0988 C   0  0  0  0  0  0  0  0  0  0  0  0
  -25.3491    4.3604  -29.6874 C   0  0  0  0  0  0  0  0  0  0  0  0
  -24.0040    4.7501  -29.1357 C   0  0  0  0  0  0  0  0  0  0  0  0
  -23.1790    5.5932  -30.0509 C   0  0  0  0  0  0  0  0  0  0  0  0
  1  2  2  0
  2  3  1  0
  3  4  2  0
  4  5  1  0
  1  6  1  0
  5  6  2  0
  3  7  1  0
  7  8  2  0
  8  9  1  0
  2 10  1  0
  9 10  2  0
  8 11  1  0
 11 12  1  0
 12 13  2  0
 13 14  1  0
 11 15  1  0
 14 15  1  0
 15 16  2  0
 17 14  1  6
 17 18  1  0
 18 19  1  0
 19 20  1  0
 20 21  1  0
 17 22  1  0
 21 22  1  0
 12 23  1  0
 23 24  2  0
 24 25  1  0
 25 26  2  0
 26 27  1  0
 23 28  1  0
 27 28  2  0
 27 29  1  0
 30 29  1  1
 30 31  1  0
 31 32  1  0
 32 33  1  0
 33 34  1  0
 30 35  1  0
 34 35  1  0
M  END
$$$$
