3oy1
     RDKit          3D

 35 40  0  0  0  0  0  0  0  0999 V2000
  -16.7737   11.9950  -35.3648 C   0  0  0  0  0  0  0  0  0  0  0  0
  -17.8523   11.8296  -34.5423 C   0  0  0  0  0  0  0  0  0  0  0  0
  -18.9922   11.2025  -34.9940 C   0  0  0  0  0  0  0  0  0  0  0  0
  -19.0877   10.7221  -36.2811 C   0  0  0  0  0  0  0  0  0  0  0  0
  -17.9974   10.8893  -37.1125 C   0  0  0  0  0  0  0  0  0  0  0  0
  -16.8520   11.5165  -36.6670 C   0  0  0  0  0  0  0  0  0  0  0  0
  -20.0738   11.0459  -34.1424 C   0  0  0  0  0  0  0  0  0  0  0  0
  -20.0389   11.5103  -32.8286 C   0  0  0  0  0  0  0  0  0  0  0  0
  -18.9073   12.1338  -32.3775 C   0  0  0  0  0  0  0  0  0  0  0  0
  -17.8305   12.2880  -33.2302 C   0  0  0  0  0  0  0  0  0  0  0  0
  -21.2028   11.2996  -32.0354 N   0  0  0  0  0  0  0  0  0  0  0  0
  -21.7322   10.1243  -31.6503 C   0  0  0  0  0  0  0  0  0  0  0  0
  -22.8205   10.3739  -30.9187 N   0  0  0  0  0  0  0  0  0  0  0  0
  -23.0123   11.6954  -30.8187 N   0  0  0  0  0  0  0  0  0  0  0  0
  -22.0047   12.2465  -31.5136 C   0  0  0  0  0  0  0  0  0  0  0  0
  -21.8238   13.4623  -31.6636 O   0  0  0  0  0  0  0  0  0  0  0  0
  -24.1002   12.2952  -30.0953 C   0  0  2  0  0  0  0  0  0  0  0  0
  -24.3313   11.7612  -28.7271 C   0  0  0  0  0  0  0  0  0  0  0  0
  -25.2192   10.5435  -28.8408 C   0  0  0  0  0  0  0  0  0  0  0  0
  -26.5250   10.9994  -29.0311 O   0  0  0  0  0  0  0  0  0  0  0  0
  -26.5513   12.0903  -29.8919 C   0  0  0  0  0  0  0  0  0  0  0  0
  -25.3934   12.0682  -30.8689 C   0  0  0  0  0  0  0  0  0  0  0  0
  -21.2347    8.7882  -31.9571 C   0  0  0  0  0  0  0  0  0  0  0  0
  -19.9170    8.6575  -32.3960 C   0  0  0  0  0  0  0  0  0  0  0  0
  -19.3752    7.4204  -32.7063 C   0  0  0  0  0  0  0  0  0  0  0  0
  -20.1609    6.3206  -32.5738 N   0  0  0  0  0  0  0  0  0  0  0  0
  -21.4299    6.4416  -32.1517 C   0  0  0  0  0  0  0  0  0  0  0  0
  -22.0059    7.6487  -31.8337 C   0  0  0  0  0  0  0  0  0  0  0  0
  -22.2089    5.2603  -32.0303 N   0  0  0  0  0  0  0  0  0  0  0  0
  -23.6052    5.3550  -31.6185 C   0  0  1  0  0  0  0  0  0  0  0  0
  -24.4549    4.3430  -32.3794 C   0  0  0  0  0  0  0  0  0  0  0  0
  -25.9065    4.7272  -32.1227 C   0  0  0  0  0  0  0  0  0  0  0  0
  -26.1895    4.5103  -30.6542 C   0  0  0  0  0  0  0  0  0  0  0  0
  -24.9471    4.1668  -29.8771 C   0  0  0  0  0  0  0  0  0  0  0  0
  -23.7812    5.0600  -30.1453 C   0  0  0  0  0  0  0  0  0  0  0  0
  1  2  2  0
  2  3  1  0
  3  4  2  0
  4  5  1  0
  1  6  1  0
  5  6  2  0
  3  7  1  0
  7  8  2  0
  8  9  1  0
  2 10  1  0
  9 10  2  0
  8 11  1  0
 11 12  1  0
 12 13  2  0
 13 14  1  0
 11 15  1  0
 14 15  1  0
 15 16  2  0
 17 14  1  6
 17 18  1  0
 18 19  1  0
 19 20  1  0
 20 21  1  0
 17 22  1  0
 21 22  1  0
 12 23  1  0
 23 24  2  0
 24 25  1  0
 25 26  2  0
 26 27  1  0
 23 28  1  0
 27 28  2  0
 27 29  1  0
 30 29  1  6
 30 31  1  0
 31 32  1  0
 32 33  1  0
 33 34  1  0
 30 35  1  0
 34 35  1  0
M  END
$$$$
