3oy1
     RDKit          3D

 35 40  0  0  0  0  0  0  0  0999 V2000
  -17.5408   11.8452  -36.5588 C   0  0  0  0  0  0  0  0  0  0  0  0
  -18.4338   11.6585  -35.5414 C   0  0  0  0  0  0  0  0  0  0  0  0
  -18.1842   12.1629  -34.2845 C   0  0  0  0  0  0  0  0  0  0  0  0
  -17.0347   12.8688  -34.0073 C   0  0  0  0  0  0  0  0  0  0  0  0
  -16.1320   13.0575  -35.0356 C   0  0  0  0  0  0  0  0  0  0  0  0
  -16.3753   12.5551  -36.2974 C   0  0  0  0  0  0  0  0  0  0  0  0
  -19.1039   11.9615  -33.2681 C   0  0  0  0  0  0  0  0  0  0  0  0
  -20.2859   11.2555  -33.4855 C   0  0  0  0  0  0  0  0  0  0  0  0
  -20.5361   10.7533  -34.7336 C   0  0  0  0  0  0  0  0  0  0  0  0
  -19.6161   10.9565  -35.7449 C   0  0  0  0  0  0  0  0  0  0  0  0
  -21.1643   11.1042  -32.3747 N   0  0  0  0  0  0  0  0  0  0  0  0
  -21.4805    9.9684  -31.7267 C   0  0  0  0  0  0  0  0  0  0  0  0
  -22.3363   10.2683  -30.7472 N   0  0  0  0  0  0  0  0  0  0  0  0
  -22.5857   11.5840  -30.7435 N   0  0  0  0  0  0  0  0  0  0  0  0
  -21.8538   12.0794  -31.7538 C   0  0  0  0  0  0  0  0  0  0  0  0
  -21.8085   13.2723  -32.0828 O   0  0  0  0  0  0  0  0  0  0  0  0
  -23.4682   12.2301  -29.8106 C   0  0  2  0  0  0  0  0  0  0  0  0
  -24.9067   12.2328  -30.1861 C   0  0  0  0  0  0  0  0  0  0  0  0
  -25.1569   13.4233  -31.0828 C   0  0  0  0  0  0  0  0  0  0  0  0
  -25.2284   14.5512  -30.2634 O   0  0  0  0  0  0  0  0  0  0  0  0
  -24.2719   14.4969  -29.2564 C   0  0  0  0  0  0  0  0  0  0  0  0
  -23.0579   13.6912  -29.6721 C   0  0  0  0  0  0  0  0  0  0  0  0
  -20.9950    8.6233  -32.0130 C   0  0  0  0  0  0  0  0  0  0  0  0
  -19.8804    8.4843  -32.8403 C   0  0  0  0  0  0  0  0  0  0  0  0
  -19.3626    7.2385  -33.1565 C   0  0  0  0  0  0  0  0  0  0  0  0
  -19.9681    6.1383  -32.6394 N   0  0  0  0  0  0  0  0  0  0  0  0
  -21.0412    6.2671  -31.8426 C   0  0  0  0  0  0  0  0  0  0  0  0
  -21.5862    7.4831  -31.5043 C   0  0  0  0  0  0  0  0  0  0  0  0
  -21.6370    5.0850  -31.3281 N   0  0  0  0  0  0  0  0  0  0  0  0
  -22.9059    5.1679  -30.6131 C   0  0  1  0  0  0  0  0  0  0  0  0
  -24.0742    5.0469  -31.5855 C   0  0  0  0  0  0  0  0  0  0  0  0
  -25.3190    5.4562  -30.8086 C   0  0  0  0  0  0  0  0  0  0  0  0
  -25.5491    4.4253  -29.7278 C   0  0  0  0  0  0  0  0  0  0  0  0
  -24.4172    3.4382  -29.6287 C   0  0  0  0  0  0  0  0  0  0  0  0
  -23.0577    4.0546  -29.6003 C   0  0  0  0  0  0  0  0  0  0  0  0
  1  2  2  0
  2  3  1  0
  3  4  2  0
  4  5  1  0
  1  6  1  0
  5  6  2  0
  3  7  1  0
  7  8  2  0
  8  9  1  0
  2 10  1  0
  9 10  2  0
  8 11  1  0
 11 12  1  0
 12 13  2  0
 13 14  1  0
 11 15  1  0
 14 15  1  0
 15 16  2  0
 17 14  1  6
 17 18  1  0
 18 19  1  0
 19 20  1  0
 20 21  1  0
 17 22  1  0
 21 22  1  0
 12 23  1  0
 23 24  2  0
 24 25  1  0
 25 26  2  0
 26 27  1  0
 23 28  1  0
 27 28  2  0
 27 29  1  0
 30 29  1  6
 30 31  1  0
 31 32  1  0
 32 33  1  0
 33 34  1  0
 30 35  1  0
 34 35  1  0
M  END
$$$$
