3oy1
     RDKit          3D

 35 40  0  0  0  0  0  0  0  0999 V2000
  -17.3229   11.4619  -36.4234 C   0  0  0  0  0  0  0  0  0  0  0  0
  -18.3521   11.3698  -35.5291 C   0  0  0  0  0  0  0  0  0  0  0  0
  -18.3842   12.1696  -34.4084 C   0  0  0  0  0  0  0  0  0  0  0  0
  -17.3887   13.0849  -34.1484 C   0  0  0  0  0  0  0  0  0  0  0  0
  -16.3484   13.1780  -35.0524 C   0  0  0  0  0  0  0  0  0  0  0  0
  -16.3095   12.3801  -36.1773 C   0  0  0  0  0  0  0  0  0  0  0  0
  -19.4376   12.0591  -33.5153 C   0  0  0  0  0  0  0  0  0  0  0  0
  -20.4753   11.1518  -33.7225 C   0  0  0  0  0  0  0  0  0  0  0  0
  -20.4455   10.3560  -34.8354 C   0  0  0  0  0  0  0  0  0  0  0  0
  -19.3929   10.4694  -35.7239 C   0  0  0  0  0  0  0  0  0  0  0  0
  -21.5104   11.1165  -32.7449 N   0  0  0  0  0  0  0  0  0  0  0  0
  -21.9579   10.0479  -32.0611 C   0  0  0  0  0  0  0  0  0  0  0  0
  -22.9354   10.4504  -31.2461 N   0  0  0  0  0  0  0  0  0  0  0  0
  -23.1353   11.7672  -31.3855 N   0  0  0  0  0  0  0  0  0  0  0  0
  -22.2471   12.1572  -32.3134 C   0  0  0  0  0  0  0  0  0  0  0  0
  -22.1118   13.3163  -32.7275 O   0  0  0  0  0  0  0  0  0  0  0  0
  -24.1200   12.5111  -30.6484 C   0  0  2  0  0  0  0  0  0  0  0  0
  -24.0288   12.4031  -29.1684 C   0  0  0  0  0  0  0  0  0  0  0  0
  -24.7928   11.1721  -28.7384 C   0  0  0  0  0  0  0  0  0  0  0  0
  -26.1504   11.4959  -28.7676 O   0  0  0  0  0  0  0  0  0  0  0  0
  -26.4527   12.2763  -29.8772 C   0  0  0  0  0  0  0  0  0  0  0  0
  -25.5073   12.0097  -31.0309 C   0  0  0  0  0  0  0  0  0  0  0  0
  -21.4846    8.6722  -32.1630 C   0  0  0  0  0  0  0  0  0  0  0  0
  -20.1400    8.4557  -32.4647 C   0  0  0  0  0  0  0  0  0  0  0  0
  -19.6187    7.1767  -32.5777 C   0  0  0  0  0  0  0  0  0  0  0  0
  -20.4521    6.1215  -32.3868 N   0  0  0  0  0  0  0  0  0  0  0  0
  -21.7472    6.3250  -32.0961 C   0  0  0  0  0  0  0  0  0  0  0  0
  -22.3041    7.5760  -31.9750 C   0  0  0  0  0  0  0  0  0  0  0  0
  -22.5758    5.1873  -31.9060 N   0  0  0  0  0  0  0  0  0  0  0  0
  -23.9354    5.3595  -31.4057 C   0  0  1  0  0  0  0  0  0  0  0  0
  -24.8200    4.2029  -31.8582 C   0  0  0  0  0  0  0  0  0  0  0  0
  -26.2545    4.6243  -31.5659 C   0  0  0  0  0  0  0  0  0  0  0  0
  -26.4102    4.7251  -30.0661 C   0  0  0  0  0  0  0  0  0  0  0  0
  -25.1001    4.5635  -29.3430 C   0  0  0  0  0  0  0  0  0  0  0  0
  -23.9823    5.3858  -29.8940 C   0  0  0  0  0  0  0  0  0  0  0  0
  1  2  2  0
  2  3  1  0
  3  4  2  0
  4  5  1  0
  1  6  1  0
  5  6  2  0
  3  7  1  0
  7  8  2  0
  8  9  1  0
  2 10  1  0
  9 10  2  0
  8 11  1  0
 11 12  1  0
 12 13  2  0
 13 14  1  0
 11 15  1  0
 14 15  1  0
 15 16  2  0
 17 14  1  6
 17 18  1  0
 18 19  1  0
 19 20  1  0
 20 21  1  0
 17 22  1  0
 21 22  1  0
 12 23  1  0
 23 24  2  0
 24 25  1  0
 25 26  2  0
 26 27  1  0
 23 28  1  0
 27 28  2  0
 27 29  1  0
 30 29  1  1
 30 31  1  0
 31 32  1  0
 32 33  1  0
 33 34  1  0
 30 35  1  0
 34 35  1  0
M  END
$$$$
