3oy1
     RDKit          3D

 35 40  0  0  0  0  0  0  0  0999 V2000
  -17.1156   12.3206  -35.6370 C   0  0  0  0  0  0  0  0  0  0  0  0
  -18.1417   12.0499  -34.7762 C   0  0  0  0  0  0  0  0  0  0  0  0
  -19.1652   11.2053  -35.1447 C   0  0  0  0  0  0  0  0  0  0  0  0
  -19.1932   10.6063  -36.3844 C   0  0  0  0  0  0  0  0  0  0  0  0
  -18.1560   10.8799  -37.2546 C   0  0  0  0  0  0  0  0  0  0  0  0
  -17.1272   11.7250  -36.8924 C   0  0  0  0  0  0  0  0  0  0  0  0
  -20.1954   10.9452  -34.2556 C   0  0  0  0  0  0  0  0  0  0  0  0
  -20.2241   11.5207  -32.9864 C   0  0  0  0  0  0  0  0  0  0  0  0
  -19.2082   12.3603  -32.6180 C   0  0  0  0  0  0  0  0  0  0  0  0
  -18.1823   12.6172  -33.5079 C   0  0  0  0  0  0  0  0  0  0  0  0
  -21.3271   11.1887  -32.1488 N   0  0  0  0  0  0  0  0  0  0  0  0
  -21.7196    9.9636  -31.7552 C   0  0  0  0  0  0  0  0  0  0  0  0
  -22.7961   10.0976  -30.9773 N   0  0  0  0  0  0  0  0  0  0  0  0
  -23.1149   11.3925  -30.8551 N   0  0  0  0  0  0  0  0  0  0  0  0
  -22.1973   12.0467  -31.5845 C   0  0  0  0  0  0  0  0  0  0  0  0
  -22.1455   13.2755  -31.7285 O   0  0  0  0  0  0  0  0  0  0  0  0
  -24.2264   11.8750  -30.0815 C   0  0  2  0  0  0  0  0  0  0  0  0
  -25.2367   12.6637  -30.8348 C   0  0  0  0  0  0  0  0  0  0  0  0
  -24.7770   14.1029  -30.8736 C   0  0  0  0  0  0  0  0  0  0  0  0
  -25.0672   14.6640  -29.6286 O   0  0  0  0  0  0  0  0  0  0  0  0
  -24.7967   13.7666  -28.6024 C   0  0  0  0  0  0  0  0  0  0  0  0
  -23.7028   12.7885  -28.9798 C   0  0  0  0  0  0  0  0  0  0  0  0
  -21.1040    8.6864  -32.0966 C   0  0  0  0  0  0  0  0  0  0  0  0
  -19.8969    8.6996  -32.7959 C   0  0  0  0  0  0  0  0  0  0  0  0
  -19.2536    7.5259  -33.1546 C   0  0  0  0  0  0  0  0  0  0  0  0
  -19.8271    6.3444  -32.8085 N   0  0  0  0  0  0  0  0  0  0  0  0
  -20.9889    6.3268  -32.1354 C   0  0  0  0  0  0  0  0  0  0  0  0
  -21.6593    7.4669  -31.7606 C   0  0  0  0  0  0  0  0  0  0  0  0
  -21.5461    5.0648  -31.7978 N   0  0  0  0  0  0  0  0  0  0  0  0
  -22.8509    5.0018  -31.1483 C   0  0  1  0  0  0  0  0  0  0  0  0
  -23.9143    4.5294  -32.1337 C   0  0  0  0  0  0  0  0  0  0  0  0
  -25.2590    4.7967  -31.4697 C   0  0  0  0  0  0  0  0  0  0  0  0
  -25.3636    3.8984  -30.2590 C   0  0  0  0  0  0  0  0  0  0  0  0
  -24.0786    3.1674  -29.9767 C   0  0  0  0  0  0  0  0  0  0  0  0
  -22.8593    4.0289  -29.9900 C   0  0  0  0  0  0  0  0  0  0  0  0
  1  2  2  0
  2  3  1  0
  3  4  2  0
  4  5  1  0
  1  6  1  0
  5  6  2  0
  3  7  1  0
  7  8  2  0
  8  9  1  0
  2 10  1  0
  9 10  2  0
  8 11  1  0
 11 12  1  0
 12 13  2  0
 13 14  1  0
 11 15  1  0
 14 15  1  0
 15 16  2  0
 17 14  1  6
 17 18  1  0
 18 19  1  0
 19 20  1  0
 20 21  1  0
 17 22  1  0
 21 22  1  0
 12 23  1  0
 23 24  2  0
 24 25  1  0
 25 26  2  0
 26 27  1  0
 23 28  1  0
 27 28  2  0
 27 29  1  0
 30 29  1  6
 30 31  1  0
 31 32  1  0
 32 33  1  0
 33 34  1  0
 30 35  1  0
 34 35  1  0
M  END
$$$$
