3oy1
     RDKit          3D

 35 40  0  0  0  0  0  0  0  0999 V2000
  -17.2980   12.7066  -35.3860 C   0  0  0  0  0  0  0  0  0  0  0  0
  -18.3338   12.3140  -34.5859 C   0  0  0  0  0  0  0  0  0  0  0  0
  -19.3658   11.5555  -35.0922 C   0  0  0  0  0  0  0  0  0  0  0  0
  -19.3929   11.1670  -36.4131 C   0  0  0  0  0  0  0  0  0  0  0  0
  -18.3459   11.5638  -37.2219 C   0  0  0  0  0  0  0  0  0  0  0  0
  -17.3086   12.3238  -36.7218 C   0  0  0  0  0  0  0  0  0  0  0  0
  -20.4057   11.1688  -34.2624 C   0  0  0  0  0  0  0  0  0  0  0  0
  -20.4357   11.5302  -32.9165 C   0  0  0  0  0  0  0  0  0  0  0  0
  -19.4114   12.2838  -32.4111 C   0  0  0  0  0  0  0  0  0  0  0  0
  -18.3758   12.6675  -33.2422 C   0  0  0  0  0  0  0  0  0  0  0  0
  -21.5490   11.0820  -32.1496 N   0  0  0  0  0  0  0  0  0  0  0  0
  -21.9480    9.8135  -31.9452 C   0  0  0  0  0  0  0  0  0  0  0  0
  -23.0333    9.8350  -31.1684 N   0  0  0  0  0  0  0  0  0  0  0  0
  -23.3517   11.0987  -30.8606 N   0  0  0  0  0  0  0  0  0  0  0  0
  -22.4246   11.8503  -31.4751 C   0  0  0  0  0  0  0  0  0  0  0  0
  -22.3693   13.0867  -31.4360 O   0  0  0  0  0  0  0  0  0  0  0  0
  -24.4715   11.4656  -30.0372 C   0  0  2  0  0  0  0  0  0  0  0  0
  -25.6446   12.0214  -30.7619 C   0  0  0  0  0  0  0  0  0  0  0  0
  -25.4270   13.5062  -30.9411 C   0  0  0  0  0  0  0  0  0  0  0  0
  -25.7189   14.1178  -29.7207 O   0  0  0  0  0  0  0  0  0  0  0  0
  -25.2383   13.3628  -28.6574 C   0  0  0  0  0  0  0  0  0  0  0  0
  -24.0289   12.5387  -29.0498 C   0  0  0  0  0  0  0  0  0  0  0  0
  -21.3302    8.5986  -32.4639 C   0  0  0  0  0  0  0  0  0  0  0  0
  -20.0160    8.6699  -32.9263 C   0  0  0  0  0  0  0  0  0  0  0  0
  -19.3638    7.5572  -33.4329 C   0  0  0  0  0  0  0  0  0  0  0  0
  -20.0363    6.3779  -33.4721 N   0  0  0  0  0  0  0  0  0  0  0  0
  -21.3014    6.3043  -33.0282 C   0  0  0  0  0  0  0  0  0  0  0  0
  -21.9844    7.3830  -32.5185 C   0  0  0  0  0  0  0  0  0  0  0  0
  -21.9595    5.0473  -33.0914 N   0  0  0  0  0  0  0  0  0  0  0  0
  -23.2596    4.8797  -32.4512 C   0  0  1  0  0  0  0  0  0  0  0  0
  -23.1975    3.7768  -31.4001 C   0  0  0  0  0  0  0  0  0  0  0  0
  -24.6406    3.4652  -31.0241 C   0  0  0  0  0  0  0  0  0  0  0  0
  -25.2128    4.6837  -30.3373 C   0  0  0  0  0  0  0  0  0  0  0  0
  -24.2785    5.8624  -30.3918 C   0  0  0  0  0  0  0  0  0  0  0  0
  -23.7077    6.1392  -31.7434 C   0  0  0  0  0  0  0  0  0  0  0  0
  1  2  2  0
  2  3  1  0
  3  4  2  0
  4  5  1  0
  1  6  1  0
  5  6  2  0
  3  7  1  0
  7  8  2  0
  8  9  1  0
  2 10  1  0
  9 10  2  0
  8 11  1  0
 11 12  1  0
 12 13  2  0
 13 14  1  0
 11 15  1  0
 14 15  1  0
 15 16  2  0
 17 14  1  6
 17 18  1  0
 18 19  1  0
 19 20  1  0
 20 21  1  0
 17 22  1  0
 21 22  1  0
 12 23  1  0
 23 24  2  0
 24 25  1  0
 25 26  2  0
 26 27  1  0
 23 28  1  0
 27 28  2  0
 27 29  1  0
 30 29  1  1
 30 31  1  0
 31 32  1  0
 32 33  1  0
 33 34  1  0
 30 35  1  0
 34 35  1  0
M  END
$$$$
