3oy1
     RDKit          3D

 35 40  0  0  0  0  0  0  0  0999 V2000
  -17.1285   11.8636  -36.2365 C   0  0  0  0  0  0  0  0  0  0  0  0
  -18.2327   11.6552  -35.4590 C   0  0  0  0  0  0  0  0  0  0  0  0
  -18.4668   12.4323  -34.3463 C   0  0  0  0  0  0  0  0  0  0  0  0
  -17.6041   13.4405  -33.9780 C   0  0  0  0  0  0  0  0  0  0  0  0
  -16.4880   13.6512  -34.7639 C   0  0  0  0  0  0  0  0  0  0  0  0
  -16.2468   12.8768  -35.8801 C   0  0  0  0  0  0  0  0  0  0  0  0
  -19.5929   12.2030  -33.5726 C   0  0  0  0  0  0  0  0  0  0  0  0
  -20.5038   11.1978  -33.8930 C   0  0  0  0  0  0  0  0  0  0  0  0
  -20.2733   10.4243  -34.9981 C   0  0  0  0  0  0  0  0  0  0  0  0
  -19.1487   10.6562  -35.7674 C   0  0  0  0  0  0  0  0  0  0  0  0
  -21.6287   11.0441  -33.0331 N   0  0  0  0  0  0  0  0  0  0  0  0
  -22.0345    9.9265  -32.4037 C   0  0  0  0  0  0  0  0  0  0  0  0
  -23.1301   10.2164  -31.6984 N   0  0  0  0  0  0  0  0  0  0  0  0
  -23.4485   11.5074  -31.8562 N   0  0  0  0  0  0  0  0  0  0  0  0
  -22.5109   11.9983  -32.6819 C   0  0  0  0  0  0  0  0  0  0  0  0
  -22.4521   13.1705  -33.0768 O   0  0  0  0  0  0  0  0  0  0  0  0
  -24.5781   12.1372  -31.2285 C   0  0  2  0  0  0  0  0  0  0  0  0
  -24.4512   13.6010  -31.0016 C   0  0  0  0  0  0  0  0  0  0  0  0
  -23.7377   13.8133  -29.6863 C   0  0  0  0  0  0  0  0  0  0  0  0
  -24.6703   13.5987  -28.6699 O   0  0  0  0  0  0  0  0  0  0  0  0
  -25.4916   12.5177  -28.9675 C   0  0  0  0  0  0  0  0  0  0  0  0
  -24.7970   11.5076  -29.8580 C   0  0  0  0  0  0  0  0  0  0  0  0
  -21.4137    8.6079  -32.4563 C   0  0  0  0  0  0  0  0  0  0  0  0
  -20.0994    8.5131  -32.9143 C   0  0  0  0  0  0  0  0  0  0  0  0
  -19.4445    7.2944  -32.9921 C   0  0  0  0  0  0  0  0  0  0  0  0
  -20.1142    6.1768  -32.6089 N   0  0  0  0  0  0  0  0  0  0  0  0
  -21.3794    6.2631  -32.1673 C   0  0  0  0  0  0  0  0  0  0  0  0
  -22.0652    7.4510  -32.0746 C   0  0  0  0  0  0  0  0  0  0  0  0
  -22.0346    5.0644  -31.7789 N   0  0  0  0  0  0  0  0  0  0  0  0
  -23.4179    5.1140  -31.3181 C   0  0  1  0  0  0  0  0  0  0  0  0
  -24.3468    4.4878  -32.3526 C   0  0  0  0  0  0  0  0  0  0  0  0
  -25.7629    4.8657  -31.9374 C   0  0  0  0  0  0  0  0  0  0  0  0
  -26.0576    4.1810  -30.6228 C   0  0  0  0  0  0  0  0  0  0  0  0
  -24.8436    3.5030  -30.0465 C   0  0  0  0  0  0  0  0  0  0  0  0
  -23.6120    4.3468  -30.0289 C   0  0  0  0  0  0  0  0  0  0  0  0
  1  2  2  0
  2  3  1  0
  3  4  2  0
  4  5  1  0
  1  6  1  0
  5  6  2  0
  3  7  1  0
  7  8  2  0
  8  9  1  0
  2 10  1  0
  9 10  2  0
  8 11  1  0
 11 12  1  0
 12 13  2  0
 13 14  1  0
 11 15  1  0
 14 15  1  0
 15 16  2  0
 17 14  1  1
 17 18  1  0
 18 19  1  0
 19 20  1  0
 20 21  1  0
 17 22  1  0
 21 22  1  0
 12 23  1  0
 23 24  2  0
 24 25  1  0
 25 26  2  0
 26 27  1  0
 23 28  1  0
 27 28  2  0
 27 29  1  0
 30 29  1  6
 30 31  1  0
 31 32  1  0
 32 33  1  0
 33 34  1  0
 30 35  1  0
 34 35  1  0
M  END
$$$$
