3oy1
     RDKit          3D

 35 40  0  0  0  0  0  0  0  0999 V2000
  -17.0270   11.5982  -36.1115 C   0  0  0  0  0  0  0  0  0  0  0  0
  -18.1469   11.4830  -35.3371 C   0  0  0  0  0  0  0  0  0  0  0  0
  -18.3048   12.2562  -34.2085 C   0  0  0  0  0  0  0  0  0  0  0  0
  -17.3479   13.1675  -33.8206 C   0  0  0  0  0  0  0  0  0  0  0  0
  -16.2158   13.2840  -34.6033 C   0  0  0  0  0  0  0  0  0  0  0  0
  -16.0507   12.5127  -35.7353 C   0  0  0  0  0  0  0  0  0  0  0  0
  -19.4487   12.1225  -33.4383 C   0  0  0  0  0  0  0  0  0  0  0  0
  -20.4533   11.2180  -33.7782 C   0  0  0  0  0  0  0  0  0  0  0  0
  -20.2986   10.4485  -34.8992 C   0  0  0  0  0  0  0  0  0  0  0  0
  -19.1560   10.5850  -35.6649 C   0  0  0  0  0  0  0  0  0  0  0  0
  -21.5886   11.1575  -32.9204 N   0  0  0  0  0  0  0  0  0  0  0  0
  -22.0630   10.0854  -32.2606 C   0  0  0  0  0  0  0  0  0  0  0  0
  -23.1419   10.4612  -31.5702 N   0  0  0  0  0  0  0  0  0  0  0  0
  -23.3816   11.7637  -31.7677 N   0  0  0  0  0  0  0  0  0  0  0  0
  -22.4132   12.1728  -32.6023 C   0  0  0  0  0  0  0  0  0  0  0  0
  -22.2827   13.3271  -33.0312 O   0  0  0  0  0  0  0  0  0  0  0  0
  -24.4738   12.4783  -31.1649 C   0  0  2  0  0  0  0  0  0  0  0  0
  -24.2304   13.9224  -30.9084 C   0  0  0  0  0  0  0  0  0  0  0  0
  -23.5453   14.0534  -29.5677 C   0  0  0  0  0  0  0  0  0  0  0  0
  -24.5258   13.9042  -28.5852 O   0  0  0  0  0  0  0  0  0  0  0  0
  -25.4257   12.9019  -28.9276 C   0  0  0  0  0  0  0  0  0  0  0  0
  -24.7904   11.8495  -29.8134 C   0  0  0  0  0  0  0  0  0  0  0  0
  -21.5223    8.7311  -32.2710 C   0  0  0  0  0  0  0  0  0  0  0  0
  -20.2550    8.5287  -32.8180 C   0  0  0  0  0  0  0  0  0  0  0  0
  -19.6767    7.2702  -32.8626 C   0  0  0  0  0  0  0  0  0  0  0  0
  -20.3754    6.2211  -32.3569 N   0  0  0  0  0  0  0  0  0  0  0  0
  -21.5956    6.4111  -31.8294 C   0  0  0  0  0  0  0  0  0  0  0  0
  -22.2051    7.6417  -31.7656 C   0  0  0  0  0  0  0  0  0  0  0  0
  -22.2839    5.2806  -31.3142 N   0  0  0  0  0  0  0  0  0  0  0  0
  -23.7185    5.3616  -31.0620 C   0  0  1  0  0  0  0  0  0  0  0  0
  -24.5018    4.9919  -32.3169 C   0  0  0  0  0  0  0  0  0  0  0  0
  -25.9444    5.4058  -32.0559 C   0  0  0  0  0  0  0  0  0  0  0  0
  -26.4803    4.5369  -30.9416 C   0  0  0  0  0  0  0  0  0  0  0  0
  -25.4108    3.6787  -30.3209 C   0  0  0  0  0  0  0  0  0  0  0  0
  -24.1555    4.4080  -29.9721 C   0  0  0  0  0  0  0  0  0  0  0  0
  1  2  2  0
  2  3  1  0
  3  4  2  0
  4  5  1  0
  1  6  1  0
  5  6  2  0
  3  7  1  0
  7  8  2  0
  8  9  1  0
  2 10  1  0
  9 10  2  0
  8 11  1  0
 11 12  1  0
 12 13  2  0
 13 14  1  0
 11 15  1  0
 14 15  1  0
 15 16  2  0
 17 14  1  1
 17 18  1  0
 18 19  1  0
 19 20  1  0
 20 21  1  0
 17 22  1  0
 21 22  1  0
 12 23  1  0
 23 24  2  0
 24 25  1  0
 25 26  2  0
 26 27  1  0
 23 28  1  0
 27 28  2  0
 27 29  1  0
 30 29  1  6
 30 31  1  0
 31 32  1  0
 32 33  1  0
 33 34  1  0
 30 35  1  0
 34 35  1  0
M  END
$$$$
