3oy1
     RDKit          3D

 35 40  0  0  0  0  0  0  0  0999 V2000
  -16.8303   11.0712  -36.2407 C   0  0  0  0  0  0  0  0  0  0  0  0
  -17.9331   11.0586  -35.4338 C   0  0  0  0  0  0  0  0  0  0  0  0
  -18.0395   11.9312  -34.3737 C   0  0  0  0  0  0  0  0  0  0  0  0
  -17.0468   12.8422  -34.0888 C   0  0  0  0  0  0  0  0  0  0  0  0
  -15.9321   12.8550  -34.9044 C   0  0  0  0  0  0  0  0  0  0  0  0
  -15.8185   11.9839  -35.9683 C   0  0  0  0  0  0  0  0  0  0  0  0
  -19.1667   11.9005  -33.5689 C   0  0  0  0  0  0  0  0  0  0  0  0
  -20.2056   11.0019  -33.8055 C   0  0  0  0  0  0  0  0  0  0  0  0
  -20.1022   10.1338  -34.8582 C   0  0  0  0  0  0  0  0  0  0  0  0
  -18.9760   10.1676  -35.6588 C   0  0  0  0  0  0  0  0  0  0  0  0
  -21.3200   11.0515  -32.9199 N   0  0  0  0  0  0  0  0  0  0  0  0
  -21.8686   10.0334  -32.2327 C   0  0  0  0  0  0  0  0  0  0  0  0
  -22.8933   10.5104  -31.5224 N   0  0  0  0  0  0  0  0  0  0  0  0
  -23.0243   11.8262  -31.7339 N   0  0  0  0  0  0  0  0  0  0  0  0
  -22.0454   12.1386  -32.5976 C   0  0  0  0  0  0  0  0  0  0  0  0
  -21.8264   13.2715  -33.0470 O   0  0  0  0  0  0  0  0  0  0  0  0
  -24.0350   12.6407  -31.1162 C   0  0  2  0  0  0  0  0  0  0  0  0
  -23.6938   13.1744  -29.7711 C   0  0  0  0  0  0  0  0  0  0  0  0
  -24.0599   12.1289  -28.7431 C   0  0  0  0  0  0  0  0  0  0  0  0
  -25.4434   12.1887  -28.5661 O   0  0  0  0  0  0  0  0  0  0  0  0
  -26.0933   12.3769  -29.7801 C   0  0  0  0  0  0  0  0  0  0  0  0
  -25.3005   11.8100  -30.9402 C   0  0  0  0  0  0  0  0  0  0  0  0
  -21.4475    8.6371  -32.2355 C   0  0  0  0  0  0  0  0  0  0  0  0
  -20.1247    8.3456  -32.5689 C   0  0  0  0  0  0  0  0  0  0  0  0
  -19.6528    7.0429  -32.5927 C   0  0  0  0  0  0  0  0  0  0  0  0
  -20.5134    6.0395  -32.2812 N   0  0  0  0  0  0  0  0  0  0  0  0
  -21.7877    6.3152  -31.9597 C   0  0  0  0  0  0  0  0  0  0  0  0
  -22.2958    7.5921  -31.9240 C   0  0  0  0  0  0  0  0  0  0  0  0
  -22.6464    5.2295  -31.6422 N   0  0  0  0  0  0  0  0  0  0  0  0
  -23.9624    5.4928  -31.0703 C   0  0  1  0  0  0  0  0  0  0  0  0
  -24.8646    4.2735  -31.2261 C   0  0  0  0  0  0  0  0  0  0  0  0
  -26.2760    4.7432  -30.8975 C   0  0  0  0  0  0  0  0  0  0  0  0
  -26.3090    5.1199  -29.4344 C   0  0  0  0  0  0  0  0  0  0  0  0
  -24.9416    5.0934  -28.8061 C   0  0  0  0  0  0  0  0  0  0  0  0
  -23.8849    5.7983  -29.5908 C   0  0  0  0  0  0  0  0  0  0  0  0
  1  2  2  0
  2  3  1  0
  3  4  2  0
  4  5  1  0
  1  6  1  0
  5  6  2  0
  3  7  1  0
  7  8  2  0
  8  9  1  0
  2 10  1  0
  9 10  2  0
  8 11  1  0
 11 12  1  0
 12 13  2  0
 13 14  1  0
 11 15  1  0
 14 15  1  0
 15 16  2  0
 17 14  1  1
 17 18  1  0
 18 19  1  0
 19 20  1  0
 20 21  1  0
 17 22  1  0
 21 22  1  0
 12 23  1  0
 23 24  2  0
 24 25  1  0
 25 26  2  0
 26 27  1  0
 23 28  1  0
 27 28  2  0
 27 29  1  0
 30 29  1  1
 30 31  1  0
 31 32  1  0
 32 33  1  0
 33 34  1  0
 30 35  1  0
 34 35  1  0
M  END
$$$$
