@<TRIPOS>MOLECULE
3oy1
 35 40 0 0 0
SMALL
GASTEIGER

@<TRIPOS>ATOM
      1 C         -17.3960   11.9000  -36.4350 C.ar    1  UNL1        0.0000
      2 C         -18.3760   11.6940  -35.5180 C.ar    1  UNL1        0.0001
      3 C         -18.3450   12.3980  -34.2390 C.ar    1  UNL1        0.0014
      4 C         -17.3080   13.2680  -33.9990 C.ar    1  UNL1        0.0000
      5 C         -16.3320   13.4410  -34.9370 C.ar    1  UNL1        0.0000
      6 C         -16.3880   12.7750  -36.1330 C.ar    1  UNL1        0.0000
      7 C         -19.3440   12.1770  -33.3190 C.ar    1  UNL1        0.0177
      8 C         -20.3880   11.3190  -33.5110 C.ar    1  UNL1        0.0697
      9 C         -20.3640   10.6910  -34.7470 C.ar    1  UNL1        0.0177
     10 C         -19.4020   10.8450  -35.7290 C.ar    1  UNL1        0.0015
     11 N         -21.3340   11.1230  -32.6040 N.ar    1  UNL1       -0.2423
     12 C         -21.7130    9.9670  -32.0810 C.ar    1  UNL1        0.1708
     13 N         -22.7020   10.2500  -31.2490 N.ar    1  UNL1       -0.1475
     14 N         -22.8720   11.5740  -31.2630 N.ar    1  UNL1       -0.2023
     15 C         -22.0140   12.0740  -32.0940 C.ar    1  UNL1        0.3522
     16 O         -21.8700   13.2810  -32.3970 O.2     1  UNL1       -0.2444
     17 C         -23.9180   11.9890  -30.3460 C.3     1  UNL1        0.1149
     18 C         -25.1120   12.5780  -30.9870 C.3     1  UNL1        0.0566
     19 C         -26.1970   12.5140  -29.9740 C.3     1  UNL1        0.1442
     20 O         -25.8880   13.3920  -28.9400 O.3     1  UNL1       -0.3536
     21 C         -24.6230   13.2110  -28.3240 C.3     1  UNL1        0.1442
     22 C         -23.4830   12.9380  -29.2810 C.3     1  UNL1        0.0566
     23 C         -21.2980    8.5610  -32.2970 C.ar    1  UNL1        0.0406
     24 C         -20.0340    8.2450  -32.6630 C.ar    1  UNL1        0.0238
     25 C         -19.6930    6.9450  -32.8320 C.ar    1  UNL1        0.1005
     26 N         -20.5390    5.9800  -32.6720 N.ar    1  UNL1       -0.2277
     27 C         -21.7910    6.2200  -32.3010 C.ar    1  UNL1        0.1476
     28 C         -22.1760    7.5250  -32.1070 C.ar    1  UNL1        0.0388
     29 N         -22.6050    5.1780  -32.1550 N.pl3   1  UNL1       -0.2221
     30 C         -23.8990    5.2040  -31.5690 C.3     1  UNL1        0.0940
     31 C         -24.6320    3.9500  -31.9480 C.3     1  UNL1        0.0216
     32 C         -25.9780    3.8970  -31.2740 C.3     1  UNL1        0.0018
     33 C         -25.8950    3.9370  -29.7770 C.3     1  UNL1        0.0001
     34 C         -25.1140    5.1560  -29.3770 C.3     1  UNL1        0.0018
     35 C         -23.7730    5.2590  -30.0680 C.3     1  UNL1        0.0216
@<TRIPOS>BOND
     1     1     2   ar
     2     2     3   ar
     3     3     4   ar
     4     4     5   ar
     5     1     6   ar
     6     5     6   ar
     7     3     7   ar
     8     7     8   ar
     9     8     9   ar
    10     2    10   ar
    11     9    10   ar
    12     8    11    1
    13    11    12   ar
    14    12    13   ar
    15    13    14   ar
    16    11    15   ar
    17    14    15   ar
    18    15    16    2
    19    14    17    1
    20    17    18    1
    21    18    19    1
    22    19    20    1
    23    20    21    1
    24    17    22    1
    25    21    22    1
    26    12    23    1
    27    23    24   ar
    28    24    25   ar
    29    25    26   ar
    30    26    27   ar
    31    23    28   ar
    32    27    28   ar
    33    27    29    1
    34    29    30    1
    35    30    31    1
    36    31    32    1
    37    32    33    1
    38    33    34    1
    39    30    35    1
    40    34    35    1
