1a0q_ligand
     RDKit          3D

 23 23  0  0  0  0  0  0  0  0999 V2000
   13.2283   20.5277   59.4773 C   0  0  2  0  0  0  0  0  0  0  0  0
   12.6116   19.6305   58.4124 C   0  0  0  0  0  0  0  0  0  0  0  0
   12.2728   18.2641   58.9573 C   0  0  0  0  0  0  0  0  0  0  0  0
   12.3404   17.2681   57.8142 C   0  0  0  0  0  0  0  0  0  0  0  0
   11.2661   17.5202   56.7757 C   0  0  0  0  0  0  0  0  0  0  0  0
   16.3488   22.3126   56.3021 C   0  0  0  0  0  0  0  0  0  0  0  0
   17.4328   22.0616   55.4789 C   0  0  0  0  0  0  0  0  0  0  0  0
   17.3261   21.0798   54.5136 C   0  0  0  0  0  0  0  0  0  0  0  0
   16.1334   20.3803   54.4052 C   0  0  0  0  0  0  0  0  0  0  0  0
   15.0566   20.6403   55.2341 C   0  0  0  0  0  0  0  0  0  0  0  0
   15.1629   21.6321   56.2100 C   0  0  0  0  0  0  0  0  0  0  0  0
   12.3704   20.6839   61.7648 C   0  0  0  0  0  0  0  0  0  0  0  0
   11.5635   21.5004   63.9666 C   0  0  0  0  0  0  0  0  0  0  0  0
   11.2048   20.8652   62.6647 C   0  0  0  0  0  0  0  0  0  0  0  0
   11.6830   20.4296   64.9917 C   0  0  0  0  0  0  0  0  0  0  0  0
   14.1517   23.0352   59.4632 O   0  0  0  0  0  0  0  0  0  0  0  0
   15.8916   21.2341   58.9716 O   0  0  0  0  0  0  0  0  0  0  0  0
   14.0867   21.8950   57.0417 O   0  0  0  0  0  0  0  0  0  0  0  0
   13.4250   20.2192   62.3072 O   0  0  0  0  0  0  0  0  0  0  0  0
   12.0347   20.7919   66.1549 O   0  0  0  0  0  0  0  0  0  0  0  0
   11.4304   19.0985   64.7215 O   0  0  0  0  0  0  0  0  0  0  0  0
   12.2688   21.0179   60.4081 N   0  0  0  0  0  0  0  0  0  0  0  0
   14.2919   21.7331   58.7104 P   0  0  1  0  0  0  0  0  0  0  0  0
  1 23  1  0
  1 22  1  6
  1  2  1  0
  2  3  1  6
  3  4  1  6
  4  5  1  6
 22 12  1  0
 12 19  2  0
 14 12  1  1
 14 13  1  0
 13 15  1  6
 15 20  2  0
 15 21  1  0
 23 16  2  0
 23 17  1  6
 23 18  1  0
 18 11  1  0
 11 10  1  0
 11  6  2  0
  6  7  1  0
  7  8  2  0
  8  9  1  0
  9 10  2  0
M  END
$$$$
