1a0q_ligand
     RDKit          3D

 23 23  0  0  0  0  0  0  0  0999 V2000
   13.1172   20.6027   59.3067 C   0  0  2  0  0  0  0  0  0  0  0  0
   12.3194   19.6688   58.4064 C   0  0  0  0  0  0  0  0  0  0  0  0
   11.8634   18.4328   59.1433 C   0  0  0  0  0  0  0  0  0  0  0  0
   12.0020   17.2455   58.2083 C   0  0  0  0  0  0  0  0  0  0  0  0
   11.0380   17.3244   57.0418 C   0  0  0  0  0  0  0  0  0  0  0  0
   14.9432   21.2374   55.1013 C   0  0  0  0  0  0  0  0  0  0  0  0
   15.2776   21.7248   53.8498 C   0  0  0  0  0  0  0  0  0  0  0  0
   16.4346   22.4652   53.7079 C   0  0  0  0  0  0  0  0  0  0  0  0
   17.2200   22.6932   54.8280 C   0  0  0  0  0  0  0  0  0  0  0  0
   16.8752   22.2006   56.0740 C   0  0  0  0  0  0  0  0  0  0  0  0
   15.7064   21.4522   56.2190 C   0  0  0  0  0  0  0  0  0  0  0  0
   12.5946   20.9313   61.6757 C   0  0  0  0  0  0  0  0  0  0  0  0
   10.5934   20.2070   62.9547 C   0  0  0  0  0  0  0  0  0  0  0  0
   11.6000   21.2831   62.7189 C   0  0  0  0  0  0  0  0  0  0  0  0
   11.2021   19.1852   63.8475 C   0  0  0  0  0  0  0  0  0  0  0  0
   13.1740   22.5056   57.4315 O   0  0  0  0  0  0  0  0  0  0  0  0
   14.8104   22.8338   59.3621 O   0  0  0  0  0  0  0  0  0  0  0  0
   15.3581   20.9575   57.4652 O   0  0  0  0  0  0  0  0  0  0  0  0
   13.6703   20.3910   62.0922 O   0  0  0  0  0  0  0  0  0  0  0  0
   10.5110   18.1476   64.0794 O   0  0  0  0  0  0  0  0  0  0  0  0
   12.4550   19.3300   64.4113 O   0  0  0  0  0  0  0  0  0  0  0  0
   12.3220   21.1967   60.3275 N   0  0  0  0  0  0  0  0  0  0  0  0
   14.1028   21.7045   58.3132 P   0  0  1  0  0  0  0  0  0  0  0  0
  1 23  1  0
  1 22  1  6
  1  2  1  0
  2  3  1  6
  3  4  1  6
  4  5  1  6
 22 12  1  0
 12 19  2  0
 14 12  1  1
 14 13  1  0
 13 15  1  6
 15 20  2  0
 15 21  1  0
 23 16  2  0
 23 17  1  1
 23 18  1  0
 18 11  1  0
 11 10  1  0
 11  6  2  0
  6  7  1  0
  7  8  2  0
  8  9  1  0
  9 10  2  0
M  END
$$$$
