1a0q_ligand
     RDKit          3D

 23 23  0  0  0  0  0  0  0  0999 V2000
   13.5457   20.7091   59.4240 C   0  0  2  0  0  0  0  0  0  0  0  0
   13.0932   19.3379   58.9398 C   0  0  0  0  0  0  0  0  0  0  0  0
   11.6445   19.3425   58.5159 C   0  0  0  0  0  0  0  0  0  0  0  0
   11.1927   17.9024   58.3573 C   0  0  0  0  0  0  0  0  0  0  0  0
   11.6573   17.3015   57.0461 C   0  0  0  0  0  0  0  0  0  0  0  0
   14.6436   20.7426   54.3190 C   0  0  0  0  0  0  0  0  0  0  0  0
   15.6202   20.9770   53.3667 C   0  0  0  0  0  0  0  0  0  0  0  0
   16.6918   21.7846   53.6929 C   0  0  0  0  0  0  0  0  0  0  0  0
   16.7491   22.3320   54.9659 C   0  0  0  0  0  0  0  0  0  0  0  0
   15.7665   22.0903   55.9094 C   0  0  0  0  0  0  0  0  0  0  0  0
   14.6830   21.2744   55.5814 C   0  0  0  0  0  0  0  0  0  0  0  0
   12.7712   20.6082   61.7443 C   0  0  0  0  0  0  0  0  0  0  0  0
   11.5357   20.0165   63.8151 C   0  0  0  0  0  0  0  0  0  0  0  0
   11.8637   21.0786   62.8196 C   0  0  0  0  0  0  0  0  0  0  0  0
   12.8091   19.4981   64.3821 C   0  0  0  0  0  0  0  0  0  0  0  0
   12.8952   22.9797   58.1744 O   0  0  0  0  0  0  0  0  0  0  0  0
   15.3821   22.4071   58.1622 O   0  0  0  0  0  0  0  0  0  0  0  0
   13.6973   21.0304   56.5236 O   0  0  0  0  0  0  0  0  0  0  0  0
   13.5493   19.6483   62.0532 O   0  0  0  0  0  0  0  0  0  0  0  0
   13.5033   20.3133   65.0615 O   0  0  0  0  0  0  0  0  0  0  0  0
   13.2413   18.1992   64.1958 O   0  0  0  0  0  0  0  0  0  0  0  0
   12.7375   21.2144   60.4817 N   0  0  0  0  0  0  0  0  0  0  0  0
   13.8095   21.7860   58.0301 P   0  0  1  0  0  0  0  0  0  0  0  0
  1 23  1  0
  1 22  1  1
  1  2  1  0
  2  3  1  6
  3  4  1  6
  4  5  1  6
 22 12  1  0
 12 19  2  0
 14 12  1  1
 14 13  1  0
 13 15  1  6
 15 20  2  0
 15 21  1  0
 23 16  2  0
 23 17  1  1
 23 18  1  0
 18 11  1  0
 11 10  1  0
 11  6  2  0
  6  7  1  0
  7  8  2  0
  8  9  1  0
  9 10  2  0
M  END
$$$$
