1a0q_ligand
     RDKit          3D

 23 23  0  0  0  0  0  0  0  0999 V2000
   12.8753   20.4092   59.5432 C   0  0  2  0  0  0  0  0  0  0  0  0
   11.8361   19.7870   58.6200 C   0  0  0  0  0  0  0  0  0  0  0  0
   11.6175   18.3250   58.9257 C   0  0  0  0  0  0  0  0  0  0  0  0
   10.7960   17.7234   57.8004 C   0  0  0  0  0  0  0  0  0  0  0  0
   11.2987   16.3511   57.3998 C   0  0  0  0  0  0  0  0  0  0  0  0
   16.2484   21.9415   56.6987 C   0  0  0  0  0  0  0  0  0  0  0  0
   17.3698   22.2624   55.9535 C   0  0  0  0  0  0  0  0  0  0  0  0
   17.3904   21.9505   54.6084 C   0  0  0  0  0  0  0  0  0  0  0  0
   16.2835   21.3257   54.0534 C   0  0  0  0  0  0  0  0  0  0  0  0
   15.1682   21.0099   54.8087 C   0  0  0  0  0  0  0  0  0  0  0  0
   15.1459   21.3244   56.1681 C   0  0  0  0  0  0  0  0  0  0  0  0
   12.0880   20.3883   61.8612 C   0  0  0  0  0  0  0  0  0  0  0  0
   11.1905   20.1853   64.1674 C   0  0  0  0  0  0  0  0  0  0  0  0
   11.5372   21.1002   63.0406 C   0  0  0  0  0  0  0  0  0  0  0  0
   12.3935   19.3765   64.4997 C   0  0  0  0  0  0  0  0  0  0  0  0
   13.9010   22.7960   58.9174 O   0  0  0  0  0  0  0  0  0  0  0  0
   15.6034   20.9089   59.1490 O   0  0  0  0  0  0  0  0  0  0  0  0
   14.0308   21.0096   56.9273 O   0  0  0  0  0  0  0  0  0  0  0  0
   12.3474   19.1525   62.0285 O   0  0  0  0  0  0  0  0  0  0  0  0
   13.3716   19.9968   65.0161 O   0  0  0  0  0  0  0  0  0  0  0  0
   12.4722   18.0166   64.2695 O   0  0  0  0  0  0  0  0  0  0  0  0
   12.2929   21.0763   60.6582 N   0  0  0  0  0  0  0  0  0  0  0  0
   14.0606   21.3310   58.5852 P   0  0  1  0  0  0  0  0  0  0  0  0
  1 23  1  0
  1 22  1  1
  1  2  1  0
  2  3  1  6
  3  4  1  6
  4  5  1  6
 22 12  1  0
 12 19  2  0
 14 12  1  1
 14 13  1  0
 13 15  1  6
 15 20  2  0
 15 21  1  0
 23 16  2  0
 23 17  1  1
 23 18  1  0
 18 11  1  0
 11 10  1  0
 11  6  2  0
  6  7  1  0
  7  8  2  0
  8  9  1  0
  9 10  2  0
M  END
$$$$
