1a0q_ligand
     RDKit          3D

 23 23  0  0  0  0  0  0  0  0999 V2000
   13.0049   20.5273   59.2869 C   0  0  2  0  0  0  0  0  0  0  0  0
   12.1833   19.6407   58.3606 C   0  0  0  0  0  0  0  0  0  0  0  0
   11.9333   18.2793   58.9629 C   0  0  0  0  0  0  0  0  0  0  0  0
   11.7773   17.2815   57.8301 C   0  0  0  0  0  0  0  0  0  0  0  0
   10.4004   17.3460   57.2006 C   0  0  0  0  0  0  0  0  0  0  0  0
   14.9586   20.7007   55.4386 C   0  0  0  0  0  0  0  0  0  0  0  0
   15.2457   20.8223   54.0901 C   0  0  0  0  0  0  0  0  0  0  0  0
   16.3601   21.5418   53.7060 C   0  0  0  0  0  0  0  0  0  0  0  0
   17.1518   22.1170   54.6889 C   0  0  0  0  0  0  0  0  0  0  0  0
   16.8545   21.9884   56.0339 C   0  0  0  0  0  0  0  0  0  0  0  0
   15.7287   21.2616   56.4236 C   0  0  0  0  0  0  0  0  0  0  0  0
   12.6549   20.8214   61.6920 C   0  0  0  0  0  0  0  0  0  0  0  0
   10.9377   20.3145   63.4123 C   0  0  0  0  0  0  0  0  0  0  0  0
   11.8462   21.3408   62.8222 C   0  0  0  0  0  0  0  0  0  0  0  0
   11.6614   19.6291   64.5160 C   0  0  0  0  0  0  0  0  0  0  0  0
   13.0483   22.2326   57.2300 O   0  0  0  0  0  0  0  0  0  0  0  0
   14.2582   23.0324   59.3299 O   0  0  0  0  0  0  0  0  0  0  0  0
   15.4281   21.1309   57.7695 O   0  0  0  0  0  0  0  0  0  0  0  0
   13.7093   20.1816   62.0102 O   0  0  0  0  0  0  0  0  0  0  0  0
   11.4261   18.3925   64.6694 O   0  0  0  0  0  0  0  0  0  0  0  0
   12.5512   20.2791   65.3493 O   0  0  0  0  0  0  0  0  0  0  0  0
   12.2430   21.0464   60.3720 N   0  0  0  0  0  0  0  0  0  0  0  0
   13.9397   21.7016   58.3279 P   0  0  1  0  0  0  0  0  0  0  0  0
  1 23  1  0
  1 22  1  1
  1  2  1  0
  2  3  1  6
  3  4  1  6
  4  5  1  6
 22 12  1  0
 12 19  2  0
 14 12  1  1
 14 13  1  0
 13 15  1  6
 15 20  2  0
 15 21  1  0
 23 16  2  0
 23 17  1  1
 23 18  1  0
 18 11  1  0
 11 10  1  0
 11  6  2  0
  6  7  1  0
  7  8  2  0
  8  9  1  0
  9 10  2  0
M  END
$$$$
