1a0q_ligand
     RDKit          3D

 23 23  0  0  0  0  0  0  0  0999 V2000
   13.1525   20.4548   59.2440 C   0  0  2  0  0  0  0  0  0  0  0  0
   12.4199   19.5604   58.2528 C   0  0  0  0  0  0  0  0  0  0  0  0
   11.7392   18.4013   58.9397 C   0  0  0  0  0  0  0  0  0  0  0  0
   11.0761   17.5441   57.8773 C   0  0  0  0  0  0  0  0  0  0  0  0
   12.0904   16.8640   56.9802 C   0  0  0  0  0  0  0  0  0  0  0  0
   14.9437   21.5579   55.1097 C   0  0  0  0  0  0  0  0  0  0  0  0
   15.2656   22.1862   53.9192 C   0  0  0  0  0  0  0  0  0  0  0  0
   16.4076   22.9603   53.8594 C   0  0  0  0  0  0  0  0  0  0  0  0
   17.1909   23.0794   54.9977 C   0  0  0  0  0  0  0  0  0  0  0  0
   16.8586   22.4464   56.1821 C   0  0  0  0  0  0  0  0  0  0  0  0
   15.7050   21.6637   56.2442 C   0  0  0  0  0  0  0  0  0  0  0  0
   12.2205   20.2491   61.4984 C   0  0  0  0  0  0  0  0  0  0  0  0
   11.1526   19.7240   63.6776 C   0  0  0  0  0  0  0  0  0  0  0  0
   11.2243   20.6605   62.5179 C   0  0  0  0  0  0  0  0  0  0  0  0
   12.1804   20.1320   64.6720 C   0  0  0  0  0  0  0  0  0  0  0  0
   13.1721   22.5504   57.5859 O   0  0  0  0  0  0  0  0  0  0  0  0
   14.8277   22.6827   59.5236 O   0  0  0  0  0  0  0  0  0  0  0  0
   15.3692   21.0285   57.4285 O   0  0  0  0  0  0  0  0  0  0  0  0
   12.9597   19.2597   61.8102 O   0  0  0  0  0  0  0  0  0  0  0  0
   13.2314   20.6744   64.2145 O   0  0  0  0  0  0  0  0  0  0  0  0
   12.0274   19.9432   66.0320 O   0  0  0  0  0  0  0  0  0  0  0  0
   12.3052   20.9377   60.2814 N   0  0  0  0  0  0  0  0  0  0  0  0
   14.1176   21.6672   58.3657 P   0  0  1  0  0  0  0  0  0  0  0  0
  1 23  1  0
  1 22  1  1
  1  2  1  0
  2  3  1  6
  3  4  1  6
  4  5  1  6
 22 12  1  0
 12 19  2  0
 14 12  1  1
 14 13  1  0
 13 15  1  6
 15 20  2  0
 15 21  1  0
 23 16  2  0
 23 17  1  1
 23 18  1  0
 18 11  1  0
 11 10  1  0
 11  6  2  0
  6  7  1  0
  7  8  2  0
  8  9  1  0
  9 10  2  0
M  END
$$$$
