1a0q_ligand
     RDKit          3D

 23 23  0  0  0  0  0  0  0  0999 V2000
   13.2281   20.2863   59.3502 C   0  0  2  0  0  0  0  0  0  0  0  0
   12.2486   19.6251   58.3896 C   0  0  0  0  0  0  0  0  0  0  0  0
   11.7416   18.3075   58.9239 C   0  0  0  0  0  0  0  0  0  0  0  0
   12.4450   17.1904   58.1751 C   0  0  0  0  0  0  0  0  0  0  0  0
   11.5336   16.5185   57.1682 C   0  0  0  0  0  0  0  0  0  0  0  0
   16.8163   22.2892   56.3130 C   0  0  0  0  0  0  0  0  0  0  0  0
   17.2398   22.9995   55.2031 C   0  0  0  0  0  0  0  0  0  0  0  0
   16.5930   22.8057   53.9986 C   0  0  0  0  0  0  0  0  0  0  0  0
   15.5404   21.9041   53.9462 C   0  0  0  0  0  0  0  0  0  0  0  0
   15.1262   21.1998   55.0627 C   0  0  0  0  0  0  0  0  0  0  0  0
   15.7788   21.3945   56.2806 C   0  0  0  0  0  0  0  0  0  0  0  0
   12.9463   20.2677   61.7820 C   0  0  0  0  0  0  0  0  0  0  0  0
   11.8128   19.3693   63.8002 C   0  0  0  0  0  0  0  0  0  0  0  0
   12.1105   20.5725   62.9693 C   0  0  0  0  0  0  0  0  0  0  0  0
   10.9368   19.7852   64.9278 C   0  0  0  0  0  0  0  0  0  0  0  0
   13.3945   22.4570   57.8007 O   0  0  0  0  0  0  0  0  0  0  0  0
   15.1852   22.2738   59.6098 O   0  0  0  0  0  0  0  0  0  0  0  0
   15.3667   20.6910   57.4005 O   0  0  0  0  0  0  0  0  0  0  0  0
   13.9640   19.5311   61.9924 O   0  0  0  0  0  0  0  0  0  0  0  0
   11.2027   19.2940   66.0663 O   0  0  0  0  0  0  0  0  0  0  0  0
    9.8791   20.6606   64.7748 O   0  0  0  0  0  0  0  0  0  0  0  0
   12.5970   20.7817   60.5265 N   0  0  0  0  0  0  0  0  0  0  0  0
   14.2738   21.4215   58.4612 P   0  0  1  0  0  0  0  0  0  0  0  0
  1 23  1  0
  1 22  1  1
  1  2  1  0
  2  3  1  6
  3  4  1  6
  4  5  1  6
 22 12  1  0
 12 19  2  0
 14 12  1  1
 14 13  1  0
 13 15  1  6
 15 20  2  0
 15 21  1  0
 23 16  2  0
 23 17  1  1
 23 18  1  0
 18 11  1  0
 11 10  1  0
 11  6  2  0
  6  7  1  0
  7  8  2  0
  8  9  1  0
  9 10  2  0
M  END
$$$$
