@<TRIPOS>MOLECULE
1RQ
 38 44 0 0 0
SMALL
GASTEIGER

@<TRIPOS>ATOM
      1 C           4.8900   27.1330   32.1320 C.3     1  UNL1        0.1372
      2 C           6.2430   27.2770   32.4690 C.3     1  UNL1        0.0531
      3 C           6.7520   28.5440   32.7140 C.3     1  UNL1        0.0945
      4 N           5.9060   29.6470   32.5890 N.3     1  UNL1       -0.1866
      5 N           4.1430   28.2400   31.9930 N.3     1  UNL1       -0.1719
      6 C          -1.0570   33.7520   34.1600 C.3     1  UNL1        0.0041
      7 C          -1.7440   32.4370   34.5030 C.3     1  UNL1        0.0041
      8 C          -0.4860   32.4370   33.6220 C.3     1  UNL1        0.0463
      9 C          -0.6920   32.2010   32.1170 C.3     1  UNL1        0.2125
     10 O          -1.8190   32.3140   31.6300 O.3     1  UNL1       -0.2050
     11 N           0.4060   31.8740   31.3890 N.3     1  UNL1       -0.2470
     12 C           1.7440   31.7380   32.0190 C.3     1  UNL1        0.0917
     13 C           0.2680   31.6550   29.9120 C.3     1  UNL1        0.0744
     14 C           1.0780   30.4470   29.4130 C.3     1  UNL1        0.0189
     15 C           2.5230   30.4710   29.9700 C.3     1  UNL1        0.0203
     16 C           2.4840   30.4960   31.5310 C.3     1  UNL1        0.0916
     17 N           3.8420   30.5470   32.0840 N.3     1  UNL1       -0.1867
     18 C           4.6270   29.4730   32.2200 C.3     1  UNL1        0.2254
     19 N           4.3760   25.9220   31.8600 N.3     1  UNL1       -0.2473
     20 C           3.3890   25.7120   30.9560 C.3     1  UNL1        0.0784
     21 C           2.6730   26.5520   30.1770 C.3     1  UNL1        0.0503
     22 C           1.6870   26.0670   29.3100 C.3     1  UNL1        0.1535
     23 O           0.9580   26.9120   28.5210 O.3     1  UNL1       -0.2231
     24 C           1.4520   24.6940   29.2620 C.3     1  UNL1        0.0344
     25 C           2.2200   23.8760   30.0860 C.3     1  UNL1        0.0214
     26 C           3.1560   24.3980   30.8970 C.3     1  UNL1        0.0890
     27 N           3.9870   23.7970   31.7420 N.3     1  UNL1       -0.2035
     28 C           4.7320   24.7120   32.3320 C.3     1  UNL1        0.1328
     29 C           5.6450   24.4290   33.2770 C.3     1  UNL1        0.0314
     30 C           6.6200   23.4460   33.1180 C.3     1  UNL1        0.0028
     31 C           7.5360   23.2070   34.1490 C.3     1  UNL1        0.0001
     32 C           8.5200   22.2380   33.9760 C.3     1  UNL1        0.0000
     33 C           9.4370   22.0090   35.0060 C.3     1  UNL1        0.0000
     34 C           9.3780   22.7430   36.1910 C.3     1  UNL1        0.0000
     35 C           8.3970   23.7100   36.3670 C.3     1  UNL1        0.0000
     36 C           7.4770   23.9400   35.3480 C.3     1  UNL1        0.0000
     37 C           6.4990   24.9120   35.5260 C.3     1  UNL1        0.0001
     38 C           5.5840   25.1320   34.4950 C.3     1  UNL1        0.0028
@<TRIPOS>BOND
     1     1     2    1
     2     3     2    1
     3     4     3    1
     4     5     1    1
     5     7     6    1
     6     8     7    1
     7     8     6    1
     8     8     9    1
     9     9    10    1
    10    11     9    1
    11    12    11    1
    12    13    11    1
    13    14    13    1
    14    15    14    1
    15    16    15    1
    16    16    12    1
    17    16    17    1
    18    18    17    1
    19    18     5    1
    20    18     4    1
    21    19     1    1
    22    20    19    1
    23    20    21    1
    24    22    21    1
    25    22    23    1
    26    24    22    1
    27    25    24    1
    28    26    25    1
    29    26    20    1
    30    27    26    1
    31    28    27    1
    32    28    19    1
    33    29    28    1
    34    29    30    1
    35    31    30    1
    36    32    31    1
    37    33    32    1
    38    34    33    1
    39    35    34    1
    40    36    35    1
    41    36    31    1
    42    37    36    1
    43    38    37    1
    44    38    29    1
