589
  CCTOOLS-0919241034

 66 71  0  0  0  0  0  0  0  0999 V2000
    6.4710   -1.1480   -0.4920 C   0  0  0  0  0
    5.1870   -0.5800   -0.4380 C   0  0  0  0  0
    4.4910   -0.5530    0.7960 C   0  0  0  0  0
    5.0980   -1.0950    1.9420 C   0  0  0  0  0
    6.3440   -1.6370    1.8520 C   0  0  0  0  0
    7.0280   -1.6630    0.6390 C   0  0  0  0  0
    3.2070    0.0140    0.8520 C   0  0  0  0  0
    2.6460    0.5360   -0.2920 C   0  0  0  0  0
    3.3400    0.5060   -1.5060 C   0  0  0  0  0
    4.5840   -0.0380   -1.5870 C   0  0  0  0  0
    1.3660    1.1020   -0.2390 N   0  0  0  0  0
    0.1700    0.4100   -0.3010 C   0  0  0  0  0
   -0.8090    1.2670   -0.2220 N   0  0  0  0  0
   -0.2550    2.5490   -0.1070 N   0  0  0  0  0
    1.0870    2.4150   -0.1150 C   0  0  0  0  0
    1.9000    3.3170   -0.0280 O   0  0  0  0  0
   -0.9980    3.8070    0.0070 C   0  0  0  0  0
   -1.8790    3.7690    1.2600 C   0  0  0  0  0
   -2.7100    5.0530    1.3290 C   0  0  0  0  0
   -3.4930    5.1760    0.1400 O   0  0  0  0  0
   -2.7210    5.2630   -1.0600 C   0  0  0  0  0
   -1.8900    3.9880   -1.2250 C   0  0  0  0  0
    0.0260   -1.0570   -0.4330 C   0  0  0  0  0
    1.1450   -1.8730   -0.6410 C   0  0  0  0  0
    0.9700   -3.2350   -0.7590 C   0  0  0  0  0
   -0.2310   -3.7760   -0.6790 N   0  0  0  0  0
   -1.3180   -3.0430   -0.4840 C   0  0  0  0  0
   -1.2290   -1.6640   -0.3490 C   0  0  0  0  0
   -2.5600   -3.6630   -0.4080 N   0  0  0  0  0
   -3.7670   -2.8610   -0.1910 C   0  0  0  0  0
   -4.9810   -3.6070   -0.7480 C   0  0  0  0  0
   -6.2410   -2.7690   -0.5220 C   0  0  0  0  0
   -6.4330   -2.5290    0.9770 C   0  0  0  0  0
   -5.2180   -1.7840    1.5330 C   0  0  0  0  0
   -3.9580   -2.6210    1.3080 C   0  0  0  0  0
    7.0120   -1.1790   -1.4260 H   0  0  0  0  0
    4.5790   -1.0810    2.8890 H   0  0  0  0  0
    6.8080   -2.0520    2.7340 H   0  0  0  0  0
    8.0150   -2.0990    0.5940 H   0  0  0  0  0
    2.6650    0.0410    1.7860 H   0  0  0  0  0
    2.8820    0.9200   -2.3920 H   0  0  0  0  0
    5.1070   -0.0540   -2.5320 H   0  0  0  0  0
   -0.2990    4.6390    0.0780 H   0  0  0  0  0
   -2.5440    2.9070    1.2130 H   0  0  0  0  0
   -1.2480    3.6960    2.1460 H   0  0  0  0  0
   -3.3700    5.0130    2.1960 H   0  0  0  0  0
   -2.0450    5.9120    1.4170 H   0  0  0  0  0
   -3.3890    5.3750   -1.9140 H   0  0  0  0  0
   -2.0570    6.1250   -1.0030 H   0  0  0  0  0
   -1.2680    4.0710   -2.1160 H   0  0  0  0  0
   -2.5560    3.1300   -1.3220 H   0  0  0  0  0
    2.1330   -1.4410   -0.7080 H   0  0  0  0  0
    1.8300   -3.8690   -0.9200 H   0  0  0  0  0
   -2.1160   -1.0710   -0.1850 H   0  0  0  0  0
   -2.6280   -4.6270   -0.4980 H   0  0  0  0  0
   -3.6630   -1.9040   -0.7020 H   0  0  0  0  0
   -4.8450   -3.7770   -1.8160 H   0  0  0  0  0
   -5.0850   -4.5640   -0.2370 H   0  0  0  0  0
   -6.1380   -1.8110   -1.0330 H   0  0  0  0  0
   -7.1070   -3.3000   -0.9190 H   0  0  0  0  0
   -7.3310   -1.9330    1.1380 H   0  0  0  0  0
   -6.5370   -3.4870    1.4870 H   0  0  0  0  0
   -5.1140   -0.8260    1.0230 H   0  0  0  0  0
   -5.3550   -1.6130    2.6010 H   0  0  0  0  0
   -4.0620   -3.5790    1.8180 H   0  0  0  0  0
   -3.0930   -2.0900    1.7040 H   0  0  0  0  0
  1  2  2  0  0  0
  1  6  1  0  0  0
  1 36  1  0  0  0
  2  3  1  0  0  0
  2 10  1  0  0  0
  3  4  2  0  0  0
  3  7  1  0  0  0
  4  5  1  0  0  0
  4 37  1  0  0  0
  5  6  2  0  0  0
  5 38  1  0  0  0
  6 39  1  0  0  0
  7  8  2  0  0  0
  7 40  1  0  0  0
  8  9  1  0  0  0
  8 11  1  0  0  0
  9 10  2  0  0  0
  9 41  1  0  0  0
 10 42  1  0  0  0
 11 12  1  0  0  0
 11 15  1  0  0  0
 12 13  2  0  0  0
 12 23  1  0  0  0
 13 14  1  0  0  0
 14 15  1  0  0  0
 14 17  1  0  0  0
 15 16  2  0  0  0
 17 18  1  0  0  0
 17 22  1  0  0  0
 17 43  1  0  0  0
 18 19  1  0  0  0
 18 44  1  0  0  0
 18 45  1  0  0  0
 19 20  1  0  0  0
 19 46  1  0  0  0
 19 47  1  0  0  0
 20 21  1  0  0  0
 21 22  1  0  0  0
 21 48  1  0  0  0
 21 49  1  0  0  0
 22 50  1  0  0  0
 22 51  1  0  0  0
 23 24  2  0  0  0
 23 28  1  0  0  0
 24 25  1  0  0  0
 24 52  1  0  0  0
 25 26  2  0  0  0
 25 53  1  0  0  0
 26 27  1  0  0  0
 27 28  2  0  0  0
 27 29  1  0  0  0
 28 54  1  0  0  0
 29 30  1  0  0  0
 29 55  1  0  0  0
 30 31  1  0  0  0
 30 35  1  0  0  0
 30 56  1  0  0  0
 31 32  1  0  0  0
 31 57  1  0  0  0
 31 58  1  0  0  0
 32 33  1  0  0  0
 32 59  1  0  0  0
 32 60  1  0  0  0
 33 34  1  0  0  0
 33 61  1  0  0  0
 33 62  1  0  0  0
 34 35  1  0  0  0
 34 63  1  0  0  0
 34 64  1  0  0  0
 35 65  1  0  0  0
 35 66  1  0  0  0
M  END
$$$$
