@<TRIPOS>MOLECULE
X3V
 44 47 0 0 0
SMALL
GASTEIGER

@<TRIPOS>ATOM
      1 C          23.4530    6.1110   30.3380 C.3     1  UNL1        0.0415
      2 C          20.6690   10.6600   32.7860 C.3     1  UNL1        0.2710
      3 C          23.0840    4.4310   31.9250 C.3     1  UNL1        0.0081
      4 C          22.6670    5.7270   31.4150 C.3     1  UNL1        0.0767
      5 N          19.9500    9.4590   33.0300 N.3     1  UNL1       -0.2586
      6 C          20.3330    8.2270   32.6940 C.3     1  UNL1        0.0828
      7 N          20.4840    5.8930   32.6060 N.3     1  UNL1       -0.1515
      8 C          25.4960    0.2390   34.1900 C.3     1  UNL1        0.0653
      9 C          24.7870    2.5560   31.6610 C.3     1  UNL1        0.2188
     10 C          18.2530   12.8630   34.4600 C.3     1  UNL1        0.0898
     11 C          17.3850   12.2320   36.6400 C.3     1  UNL1       -0.0293
     12 C          24.9090    0.3250   32.7990 C.3     1  UNL1        0.0570
     13 C          21.5960    7.8320   32.1420 C.3     1  UNL1        0.0678
     14 C          19.3290   11.1300   35.6140 C.3     1  UNL1       -0.0109
     15 C          18.4230   11.2760   36.6780 C.3     1  UNL1       -0.0293
     16 C          17.3140   13.0370   35.4980 C.3     1  UNL1       -0.0102
     17 C          23.9070   -0.8040   33.0680 C.3     1  UNL1        0.0653
     18 C          19.7560    6.9380   33.0750 C.3     1  UNL1        0.0842
     19 C          24.1600    3.8180   31.2980 C.3     1  UNL1        0.0906
     20 C          19.1690   11.9720   34.3120 C.3     1  UNL1        0.0676
     21 N          21.6290    6.4520   31.9800 N.3     1  UNL1       -0.2093
     22 N          20.2250   11.8200   33.3020 N.3     1  UNL1       -0.2599
     23 N          24.2050    1.6330   32.4890 N.3     1  UNL1       -0.2746
     24 O          21.6310   10.6520   32.0300 O.3     1  UNL1       -0.1863
     25 O          25.9060    2.3750   31.2480 O.3     1  UNL1       -0.2043
     26 O          24.5720   -0.9940   34.5090 O.3     1  UNL1       -0.3765
     27 S          24.6070    4.9260   30.0470 S.3     1  UNL1       -0.1411
     28 CL         18.1730   13.9070   33.0900 Cl      1  UNL1       -0.1139
     29 H          23.4430    6.8650   29.7930 H       1  UNL1        0.0443
     30 H          22.6020    4.0900   32.6430 H       1  UNL1        0.0339
     31 H          19.1900    9.4920   33.4320 H       1  UNL1        0.1268
     32 H          25.2890    1.0100   34.7410 H       1  UNL1        0.0576
     33 H          26.4380    0.0080   34.1940 H       1  UNL1        0.0576
     34 H          16.7780   12.3240   37.3390 H       1  UNL1        0.0310
     35 H          25.6150   -0.0700   32.2630 H       1  UNL1        0.0506
     36 H          22.3260    8.3570   31.9040 H       1  UNL1        0.0513
     37 H          20.0270   10.5220   35.7010 H       1  UNL1        0.0326
     38 H          18.4920   10.7400   37.4350 H       1  UNL1        0.0310
     39 H          16.6410   13.6780   35.4440 H       1  UNL1        0.0325
     40 H          24.0300   -1.5740   32.4910 H       1  UNL1        0.0576
     41 H          22.9870   -0.4990   33.1140 H       1  UNL1        0.0576
     42 H          18.9790    6.8610   33.5800 H       1  UNL1        0.0529
     43 H          20.5760   12.5580   33.0350 H       1  UNL1        0.1268
     44 H          23.4370    1.7530   32.8580 H       1  UNL1        0.1253
@<TRIPOS>BOND
     1     2    24    1
     2     4     3    1
     3     4     1    1
     4     5     2    1
     5     6     5    1
     6     8    32    1
     7     9    25    1
     8    10    28    1
     9    12     8    1
    10    12    35    1
    11    13     6    1
    12    15    14    1
    13    15    11    1
    14    16    11    1
    15    16    10    1
    16    17    12    1
    17    17    40    1
    18    18     7    1
    19    18     6    1
    20    19     9    1
    21    19     3    1
    22    19    27    1
    23    20    14    1
    24    20    10    1
    25    20    22    1
    26    21    13    1
    27    21     7    1
    28    21     4    1
    29    22     2    1
    30    23     9    1
    31    23    12    1
    32    26    17    1
    33    26     8    1
    34    27     1    1
    35    29     1    1
    36    30     3    1
    37    31     5    1
    38    33     8    1
    39    34    11    1
    40    36    13    1
    41    37    14    1
    42    38    15    1
    43    39    16    1
    44    41    17    1
    45    42    18    1
    46    43    22    1
    47    44    23    1
