X3V
     RDKit          3D

 28 31  0  0  0  0  0  0  0  0999 V2000
   23.6844    6.3458   30.8784 C   0  0  0  0  0  0  0  0  0  0  0  0
   20.7506   10.2952   32.9442 C   0  0  2  0  0  0  0  0  0  0  0  0
   22.5095    4.3481   31.5636 C   0  0  0  0  0  0  0  0  0  0  0  0
   22.7844    5.7666   31.9496 C   0  0  0  0  0  0  0  0  0  0  0  0
   20.2288    8.9655   32.9076 N   0  0  0  0  0  0  0  0  0  0  0  0
   20.1615    8.2698   31.7060 C   0  0  1  0  0  0  0  0  0  0  0  0
   20.4320    5.9105   31.6118 N   0  0  0  0  0  0  0  0  0  0  0  0
   24.5092   -0.4057   33.6311 C   0  0  0  0  0  0  0  0  0  0  0  0
   24.3933    3.2485   32.7921 C   0  0  2  0  0  0  0  0  0  0  0  0
   17.5372   12.0302   33.7867 C   0  0  1  0  0  0  0  0  0  0  0  0
   18.3945   13.0694   35.8933 C   0  0  0  0  0  0  0  0  0  0  0  0
   24.4984    1.0986   33.9199 C   0  0  1  0  0  0  0  0  0  0  0  0
   21.5855    7.7892   31.3686 C   0  0  0  0  0  0  0  0  0  0  0  0
   18.9584   10.6757   35.3144 C   0  0  0  0  0  0  0  0  0  0  0  0
   18.4150   11.6397   36.3118 C   0  0  0  0  0  0  0  0  0  0  0  0
   18.0790   13.2933   34.4329 C   0  0  0  0  0  0  0  0  0  0  0  0
   25.6804    0.6344   34.7396 C   0  0  0  0  0  0  0  0  0  0  0  0
   19.4353    6.9758   31.6674 C   0  0  0  0  0  0  0  0  0  0  0  0
   23.8486    3.6467   31.4693 C   0  0  2  0  0  0  0  0  0  0  0  0
   18.6013   10.9963   33.8741 C   0  0  2  0  0  0  0  0  0  0  0  0
   21.5856    6.5210   32.0446 N   0  0  0  0  0  0  0  0  0  0  0  0
   19.7878   11.3090   33.1886 N   0  0  0  0  0  0  0  0  0  0  0  0
   24.8059    1.8704   32.7639 N   0  0  0  0  0  0  0  0  0  0  0  0
   21.3931   10.5353   31.7407 O   0  0  0  0  0  0  0  0  0  0  0  0
   23.4044    3.4481   33.7590 O   0  0  0  0  0  0  0  0  0  0  0  0
   25.8985   -0.4103   33.8177 O   0  0  0  0  0  0  0  0  0  0  0  0
   24.8825    4.9636   30.7196 S   0  0  0  0  0  0  0  0  0  0  0  0
   16.0397   11.5028   34.6074 Cl  0  0  0  0  0  0  0  0  0  0  0  0
  4  3  1  0
  4  1  1  0
  5  2  1  0
  6  5  1  1
 12  8  1  0
 13  6  1  0
 15 14  1  0
 15 11  1  0
 16 11  1  0
 16 10  1  0
 17 12  1  0
 18  7  1  0
 18  6  1  0
 19  9  1  0
 19  3  1  1
 20 14  1  0
 20 10  1  0
 21 13  1  0
 21  7  1  0
 21  4  1  0
 22  2  1  0
 20 22  1  6
 23  9  1  0
 12 23  1  6
  2 24  1  6
  9 25  1  1
 17 26  1  6
  8 26  1  6
 19 27  1  0
 27  1  1  0
 10 28  1  1
M  END
$$$$
