589
     RDKit          3D

 35 40  0  0  0  0  0  0  0  0999 V2000
    4.5893   -3.6389    3.1093 C   0  0  0  0  0  0  0  0  0  0  0  0
    4.6400   -2.9038    1.9449 C   0  0  0  0  0  0  0  0  0  0  0  0
    3.6453   -2.9538    1.0112 C   0  0  0  0  0  0  0  0  0  0  0  0
    2.5499   -3.7577    1.2221 C   0  0  0  0  0  0  0  0  0  0  0  0
    2.4510   -4.5123    2.3696 C   0  0  0  0  0  0  0  0  0  0  0  0
    3.4823   -4.4418    3.3065 C   0  0  0  0  0  0  0  0  0  0  0  0
    3.7201   -2.2103   -0.1424 C   0  0  0  0  0  0  0  0  0  0  0  0
    4.8126   -1.3913   -0.3812 C   0  0  0  0  0  0  0  0  0  0  0  0
    5.7910   -1.3648    0.5747 C   0  0  0  0  0  0  0  0  0  0  0  0
    5.7411   -2.0945    1.7308 C   0  0  0  0  0  0  0  0  0  0  0  0
    4.8525   -0.6379   -1.5869 N   0  0  0  0  0  0  0  0  0  0  0  0
    4.7197   -1.0995   -2.8468 C   0  0  0  0  0  0  0  0  0  0  0  0
    4.8211   -0.0513   -3.6806 N   0  0  0  0  0  0  0  0  0  0  0  0
    5.0146    1.0621   -2.9813 N   0  0  0  0  0  0  0  0  0  0  0  0
    5.0300    0.6748   -1.6980 C   0  0  0  0  0  0  0  0  0  0  0  0
    5.1909    1.4480   -0.7225 O   0  0  0  0  0  0  0  0  0  0  0  0
    5.1635    2.3598   -3.5817 C   0  0  2  0  0  0  0  0  0  0  0  0
    4.2339    3.3928   -3.0282 C   0  0  0  0  0  0  0  0  0  0  0  0
    3.0814    3.6145   -3.9863 C   0  0  0  0  0  0  0  0  0  0  0  0
    3.5778    4.2680   -5.1134 O   0  0  0  0  0  0  0  0  0  0  0  0
    4.7853    3.7423   -5.5548 C   0  0  0  0  0  0  0  0  0  0  0  0
    5.0414    2.3420   -5.0927 C   0  0  0  0  0  0  0  0  0  0  0  0
    4.5055   -2.4965   -3.1963 C   0  0  0  0  0  0  0  0  0  0  0  0
    5.5078   -3.4289   -3.2821 C   0  0  0  0  0  0  0  0  0  0  0  0
    5.1417   -4.7217   -3.6272 C   0  0  0  0  0  0  0  0  0  0  0  0
    3.8599   -5.0687   -3.8721 N   0  0  0  0  0  0  0  0  0  0  0  0
    2.8644   -4.1755   -3.7945 C   0  0  0  0  0  0  0  0  0  0  0  0
    3.2004   -2.8825   -3.4532 C   0  0  0  0  0  0  0  0  0  0  0  0
    1.5160   -4.5282   -4.0493 N   0  0  0  0  0  0  0  0  0  0  0  0
    0.5159   -4.3440   -3.0157 C   0  0  1  0  0  0  0  0  0  0  0  0
   -0.8759   -4.6346   -3.5391 C   0  0  0  0  0  0  0  0  0  0  0  0
   -1.8289   -4.5409   -2.3734 C   0  0  0  0  0  0  0  0  0  0  0  0
   -1.5547   -5.5726   -1.3194 C   0  0  0  0  0  0  0  0  0  0  0  0
   -0.3042   -6.3287   -1.7140 C   0  0  0  0  0  0  0  0  0  0  0  0
    0.8075   -5.3020   -1.9013 C   0  0  0  0  0  0  0  0  0  0  0  0
  1  2  2  0
  1  6  1  0
  2  3  1  0
  2 10  1  0
  3  4  2  0
  3  7  1  0
  4  5  1  0
  5  6  2  0
  7  8  2  0
  8  9  1  0
  8 11  1  0
  9 10  2  0
 11 12  1  0
 11 15  1  0
 12 13  2  0
 12 23  1  0
 13 14  1  0
 14 15  1  0
 17 14  1  1
 15 16  2  0
 17 18  1  0
 17 22  1  0
 18 19  1  1
 19 20  1  1
 21 20  1  6
 22 21  1  1
 23 24  2  0
 23 28  1  0
 24 25  1  0
 25 26  2  0
 26 27  1  0
 27 28  2  0
 27 29  1  0
 30 29  1  6
 31 30  1  6
 30 35  1  0
 32 31  1  6
 33 32  1  6
 34 33  1  6
 35 34  1  1
M  END
$$$$
