@<TRIPOS>MOLECULE
J6F
 19 20 0 0 0
SMALL
GASTEIGER

@<TRIPOS>ATOM
      1 C           4.6370   26.7670   32.1370 C.3     1  UNL1        0.1559
      2 C           4.8110   28.1000   31.9140 C.3     1  UNL1        0.1388
      3 C           5.8550   28.7520   32.4700 C.3     1  UNL1        0.2462
      4 C           3.0590   27.4430   30.8570 C.3     1  UNL1        0.1937
      5 N           6.7630   28.0460   33.2720 N.3     1  UNL1       -0.1434
      6 N           5.5010   26.0560   32.9270 N.3     1  UNL1       -0.2181
      7 C           0.3380   34.1840   33.8170 C.3     1  UNL1        0.0000
      8 C           1.5840   33.6790   33.0570 C.3     1  UNL1        0.0000
      9 C           1.2130   32.5480   32.0920 C.3     1  UNL1        0.0000
     10 C           2.4980   32.0100   31.4490 C.3     1  UNL1        0.0014
     11 C           2.3120   30.5150   31.1590 C.3     1  UNL1        0.0174
     12 C           3.6070   29.9030   30.6000 C.3     1  UNL1        0.0743
     13 N           3.8200   28.5110   31.1080 N.3     1  UNL1       -0.2461
     14 O           6.0510   29.9580   32.2920 O.3     1  UNL1       -0.2019
     15 C           6.5520   26.6680   33.4980 C.3     1  UNL1        0.2938
     16 O           7.3240   26.0100   34.2070 O.3     1  UNL1       -0.1843
     17 C           5.3190   24.5880   33.1700 C.3     1  UNL1        0.0944
     18 N           3.5340   26.3700   31.4800 N.3     1  UNL1       -0.1766
     19 S           1.6520   27.4050   29.8560 S.3     1  UNL1       -0.0457
@<TRIPOS>BOND
     1     1    18    1
     2     2     1    1
     3     2    13    1
     4     3     2    1
     5     3    14    1
     6     4    19    1
     7     5     3    1
     8     6     1    1
     9     8     7    1
    10     9     8    1
    11    10     9    1
    12    11    10    1
    13    12    11    1
    14    13    12    1
    15    13     4    1
    16    15     6    1
    17    15     5    1
    18    15    16    1
    19    17     6    1
    20    18     4    1
