@<TRIPOS>MOLECULE
C15
 44 42 0 0 0
SMALL
GASTEIGER

@<TRIPOS>ATOM
      1 C         -16.0740   12.8790  -37.1720 C.3     1  UNL1        0.1559
      2 C         -17.2550   12.4310  -38.0360 C.3     1  UNL1        0.0037
      3 C         -16.7470   11.9490  -39.3940 C.3     1  UNL1       -0.0714
      4 C         -10.1390    0.3710  -43.2100 C.3     1  UNL1        0.0000
      5 C         -10.8530    1.4670  -43.9630 C.3     1  UNL1        0.0000
      6 C         -10.5660    2.8260  -43.3490 C.3     1  UNL1        0.0000
      7 C         -11.5100    3.8760  -43.9240 C.3     1  UNL1        0.0000
      8 N         -17.6980   11.9440  -40.5320 N.4     1  UNL1        0.3871
      9 C         -19.0140   11.3910  -40.1110 C.3     1  UNL1       -0.0959
     10 C         -17.8990   13.3150  -41.0570 C.3     1  UNL1       -0.0959
     11 C         -11.2500    5.2910  -43.4060 C.3     1  UNL1        0.0000
     12 C         -12.5580    6.0730  -43.4500 C.3     1  UNL1        0.0000
     13 C         -12.4100    7.5890  -43.5320 C.3     1  UNL1       -0.0000
     14 C         -13.4340    8.2630  -42.6170 C.3     1  UNL1       -0.0000
     15 C         -13.7030    9.7480  -42.9140 C.3     1  UNL1       -0.0001
     16 C         -15.1840   10.1180  -42.9060 C.3     1  UNL1       -0.0021
     17 C         -15.6000   11.1190  -41.8350 C.3     1  UNL1       -0.0223
     18 C         -17.1350   11.0870  -41.6230 C.3     1  UNL1       -0.0732
     19 S         -15.1700   11.5830  -36.6280 S.3     1  UNL1        0.0225
     20 O         -15.4220   11.4910  -35.2060 O.3     1  UNL1       -0.0695
     21 O         -13.7800   11.7900  -36.8910 O.3     1  UNL1       -0.0695
     22 O         -15.5960   10.1430  -37.2820 O.3     1  UNL1       -0.0695
     23 C         -16.3450   47.3280   37.7650 C.3     2  UNL2        0.1559
     24 C         -17.6490   46.6580   38.2500 C.3     2  UNL2        0.0037
     25 C         -17.9360   46.9110   39.7550 C.3     2  UNL2       -0.0714
     26 C         -10.0730   57.7260   43.5540 C.3     2  UNL2        0.0000
     27 C          -9.6760   56.2610   43.5670 C.3     2  UNL2        0.0000
     28 C         -10.8850   55.3420   43.7190 C.3     2  UNL2        0.0000
     29 C         -10.4900   53.8620   43.6700 C.3     2  UNL2        0.0000
     30 N         -17.3750   45.8530   40.5810 N.4     2  UNL2        0.3871
     31 C         -16.1160   45.2650   40.2310 C.3     2  UNL2       -0.0959
     32 C         -18.2250   44.7860   41.1880 C.3     2  UNL2       -0.0959
     33 C         -11.7220   52.9560   43.6760 C.3     2  UNL2        0.0000
     34 C         -11.3610   51.5200   43.2940 C.3     2  UNL2        0.0000
     35 C         -12.2960   50.4520   43.8800 C.3     2  UNL2       -0.0000
     36 C         -13.2570   49.8540   42.8500 C.3     2  UNL2       -0.0000
     37 C         -13.7910   48.4850   43.2910 C.3     2  UNL2       -0.0001
     38 C         -15.2820   48.2500   42.9990 C.3     2  UNL2       -0.0021
     39 C         -15.5470   47.3310   41.8130 C.3     2  UNL2       -0.0223
     40 C         -16.9420   46.6220   41.8400 C.3     2  UNL2       -0.0732
     41 S         -15.2400   46.3740   36.9610 S.3     2  UNL2        0.0225
     42 O         -15.4260   46.5380   35.5330 O.3     2  UNL2       -0.0695
     43 O         -15.3700   44.9680   37.2590 O.3     2  UNL2       -0.0695
     44 O         -13.7400   46.8520   37.3890 O.3     2  UNL2       -0.0695
@<TRIPOS>UNITY_ATOM_ATTR
8 1
charge 1
30 1
charge 1
@<TRIPOS>BOND
     1     2     1    1
     2     3     2    1
     3     5     4    1
     4     6     5    1
     5     7     6    1
     6     8     3    1
     7     8     9    1
     8    10     8    1
     9    11     7    1
    10    12    11    1
    11    13    12    1
    12    14    13    1
    13    15    14    1
    14    16    15    1
    15    17    16    1
    16    18     8    1
    17    18    17    1
    18    19     1    1
    19    19    20    1
    20    21    19    1
    21    22    19    1
    22    24    23    1
    23    25    24    1
    24    27    26    1
    25    28    27    1
    26    29    28    1
    27    30    25    1
    28    30    31    1
    29    32    30    1
    30    33    29    1
    31    34    33    1
    32    35    34    1
    33    36    35    1
    34    37    36    1
    35    38    37    1
    36    39    38    1
    37    40    30    1
    38    40    39    1
    39    41    23    1
    40    41    42    1
    41    43    41    1
    42    44    41    1
