C15
     RDKit          3D

 44 42  0  0  0  0  0  0  0  0999 V2000
  -16.0740   12.8790  -37.1720 C   0  0  0  0  0  0  0  0  0  0  0  0
  -17.2550   12.4310  -38.0360 C   0  0  0  0  0  0  0  0  0  0  0  0
  -16.7470   11.9490  -39.3940 C   0  0  0  0  0  0  0  0  0  0  0  0
  -10.1390    0.3710  -43.2100 C   0  0  0  0  0  0  0  0  0  0  0  0
  -10.8530    1.4670  -43.9630 C   0  0  0  0  0  0  0  0  0  0  0  0
  -10.5660    2.8260  -43.3490 C   0  0  0  0  0  0  0  0  0  0  0  0
  -11.5100    3.8760  -43.9240 C   0  0  0  0  0  0  0  0  0  0  0  0
  -17.6980   11.9440  -40.5320 N   0  0  1  0  0  0  0  0  0  0  0  0
  -19.0140   11.3910  -40.1110 C   0  0  0  0  0  0  0  0  0  0  0  0
  -17.8990   13.3150  -41.0570 C   0  0  0  0  0  0  0  0  0  0  0  0
  -11.2500    5.2910  -43.4060 C   0  0  0  0  0  0  0  0  0  0  0  0
  -12.5580    6.0730  -43.4500 C   0  0  0  0  0  0  0  0  0  0  0  0
  -12.4100    7.5890  -43.5320 C   0  0  0  0  0  0  0  0  0  0  0  0
  -13.4340    8.2630  -42.6170 C   0  0  0  0  0  0  0  0  0  0  0  0
  -13.7030    9.7480  -42.9140 C   0  0  0  0  0  0  0  0  0  0  0  0
  -15.1840   10.1180  -42.9060 C   0  0  0  0  0  0  0  0  0  0  0  0
  -15.6000   11.1190  -41.8350 C   0  0  0  0  0  0  0  0  0  0  0  0
  -17.1350   11.0870  -41.6230 C   0  0  0  0  0  0  0  0  0  0  0  0
  -15.1700   11.5830  -36.6280 S   0  0  2  0  0  0  0  0  0  0  0  0
  -15.4220   11.4910  -35.2060 O   0  0  0  0  0  0  0  0  0  0  0  0
  -13.7800   11.7900  -36.8910 O   0  0  0  0  0  0  0  0  0  0  0  0
  -15.5960   10.1430  -37.2820 O   0  0  0  0  0  0  0  0  0  0  0  0
  -16.3450   47.3280   37.7650 C   0  0  0  0  0  0  0  0  0  0  0  0
  -17.6490   46.6580   38.2500 C   0  0  0  0  0  0  0  0  0  0  0  0
  -17.9360   46.9110   39.7550 C   0  0  0  0  0  0  0  0  0  0  0  0
  -10.0730   57.7260   43.5540 C   0  0  0  0  0  0  0  0  0  0  0  0
   -9.6760   56.2610   43.5670 C   0  0  0  0  0  0  0  0  0  0  0  0
  -10.8850   55.3420   43.7190 C   0  0  0  0  0  0  0  0  0  0  0  0
  -10.4900   53.8620   43.6700 C   0  0  0  0  0  0  0  0  0  0  0  0
  -17.3750   45.8530   40.5810 N   0  0  2  0  0  0  0  0  0  0  0  0
  -16.1160   45.2650   40.2310 C   0  0  0  0  0  0  0  0  0  0  0  0
  -18.2250   44.7860   41.1880 C   0  0  0  0  0  0  0  0  0  0  0  0
  -11.7220   52.9560   43.6760 C   0  0  0  0  0  0  0  0  0  0  0  0
  -11.3610   51.5200   43.2940 C   0  0  0  0  0  0  0  0  0  0  0  0
  -12.2960   50.4520   43.8800 C   0  0  0  0  0  0  0  0  0  0  0  0
  -13.2570   49.8540   42.8500 C   0  0  0  0  0  0  0  0  0  0  0  0
  -13.7910   48.4850   43.2910 C   0  0  0  0  0  0  0  0  0  0  0  0
  -15.2820   48.2500   42.9990 C   0  0  0  0  0  0  0  0  0  0  0  0
  -15.5470   47.3310   41.8130 C   0  0  0  0  0  0  0  0  0  0  0  0
  -16.9420   46.6220   41.8400 C   0  0  0  0  0  0  0  0  0  0  0  0
  -15.2400   46.3740   36.9610 S   0  0  2  0  0  0  0  0  0  0  0  0
  -15.4260   46.5380   35.5330 O   0  0  0  0  0  0  0  0  0  0  0  0
  -15.3700   44.9680   37.2590 O   0  0  0  0  0  0  0  0  0  0  0  0
  -13.7400   46.8520   37.3890 O   0  0  0  0  0  0  0  0  0  0  0  0
  2  1  1  0
  3  2  1  0
  5  4  1  0
  6  5  1  0
  7  6  1  0
  8  3  1  0
  8  9  1  1
 10  8  1  0
 11  7  1  0
 12 11  1  0
 13 12  1  0
 14 13  1  0
 15 14  1  0
 16 15  1  0
 17 16  1  0
 18  8  1  0
 18 17  1  0
 19  1  1  0
 19 20  1  1
 21 19  1  0
 22 19  1  0
 24 23  1  0
 25 24  1  0
 27 26  1  0
 28 27  1  0
 29 28  1  0
 30 25  1  0
 30 31  1  6
 32 30  1  0
 33 29  1  0
 34 33  1  0
 35 34  1  0
 36 35  1  0
 37 36  1  0
 38 37  1  0
 39 38  1  0
 40 30  1  0
 40 39  1  0
 41 23  1  0
 41 42  1  6
 43 41  1  0
 44 41  1  0
M  CHG  2   8   1  30   1
M  END
$$$$
