
     RDKit          3D

 35 40  0  0  0  0  0  0  0  0999 V2000
  -25.0956    4.6918  -30.4145 C   0  0  0  0  0  0  0  0  0  0  0  0
  -24.1032    5.7515  -30.7354 C   0  0  0  0  0  0  0  0  0  0  0  0
  -23.3655    5.5157  -32.0265 C   0  0  0  0  0  0  0  0  0  0  0  0
  -22.7572    4.1384  -32.1017 C   0  0  0  0  0  0  0  0  0  0  0  0
  -23.7309    3.0538  -31.7079 C   0  0  0  0  0  0  0  0  0  0  0  0
  -24.4325    3.3460  -30.4175 C   0  0  0  0  0  0  0  0  0  0  0  0
  -22.2067    6.5009  -32.0225 C   0  0  0  0  0  0  0  0  0  0  0  0
  -22.8212    7.8764  -32.1710 C   0  0  0  0  0  0  0  0  0  0  0  0
  -23.7379    8.2110  -31.0261 C   0  0  0  0  0  0  0  0  0  0  0  0
  -24.7573    7.1165  -30.8333 C   0  0  0  0  0  0  0  0  0  0  0  0
  -21.8071    8.7914  -32.4655 N   0  0  0  0  0  0  0  0  0  0  0  0
  -21.3281    9.5919  -31.3828 C   0  0  0  0  0  0  0  0  0  0  0  0
  -20.2794   10.3532  -32.0851 N   0  0  0  0  0  0  0  0  0  0  0  0
  -19.7371    9.4446  -32.9932 N   0  0  0  0  0  0  0  0  0  0  0  0
  -20.6000    8.3010  -33.0737 C   0  0  0  0  0  0  0  0  0  0  0  0
  -20.8082    7.8147  -34.3428 O   0  0  0  0  0  0  0  0  0  0  0  0
  -19.6234   10.0893  -34.2680 C   0  0  2  0  0  0  0  0  0  0  0  0
  -19.3571    9.2102  -35.4373 C   0  0  0  0  0  0  0  0  0  0  0  0
  -18.3249    8.1763  -35.0145 C   0  0  0  0  0  0  0  0  0  0  0  0
  -17.4269    8.8316  -34.1708 O   0  0  0  0  0  0  0  0  0  0  0  0
  -17.2152   10.1576  -34.5035 C   0  0  0  0  0  0  0  0  0  0  0  0
  -18.4142   11.0443  -34.1791 C   0  0  0  0  0  0  0  0  0  0  0  0
  -22.3740   10.5254  -30.8494 C   0  0  0  0  0  0  0  0  0  0  0  0
  -23.7635   10.0168  -31.1514 C   0  0  0  0  0  0  0  0  0  0  0  0
  -24.6871   11.2267  -30.9520 C   0  0  0  0  0  0  0  0  0  0  0  0
  -24.5328   12.0414  -32.1425 N   0  0  0  0  0  0  0  0  0  0  0  0
  -23.1637   12.3458  -32.4091 C   0  0  0  0  0  0  0  0  0  0  0  0
  -22.1969   11.9219  -31.3387 C   0  0  0  0  0  0  0  0  0  0  0  0
  -22.9083   13.7337  -32.6831 N   0  0  0  0  0  0  0  0  0  0  0  0
  -21.5296   14.1099  -32.6841 C   0  0  1  0  0  0  0  0  0  0  0  0
  -21.1258   15.0714  -33.7525 C   0  0  0  0  0  0  0  0  0  0  0  0
  -20.1239   16.0525  -33.1923 C   0  0  0  0  0  0  0  0  0  0  0  0
  -20.8845   16.9773  -32.2471 C   0  0  0  0  0  0  0  0  0  0  0  0
  -21.4947   16.1172  -31.1621 C   0  0  0  0  0  0  0  0  0  0  0  0
  -21.1592   14.6645  -31.3332 C   0  0  0  0  0  0  0  0  0  0  0  0
  2  1  1  0
  3  2  1  0
  4  3  1  0
  5  4  1  0
  6  1  1  0
  6  5  1  0
  7  3  1  0
  8  7  1  0
  9  8  1  0
 10  9  1  0
 10  2  1  0
 11  8  1  0
 12 11  1  0
 13 12  1  0
 14 13  1  0
 15 14  1  0
 15 11  1  0
 16 15  1  0
 17 14  1  1
 18 17  1  0
 19 18  1  0
 20 19  1  0
 21 20  1  0
 22 21  1  0
 22 17  1  0
 23 12  1  0
 24 23  1  0
 25 24  1  0
 26 25  1  0
 27 26  1  0
 28 27  1  0
 28 23  1  0
 29 27  1  0
 30 29  1  1
 31 30  1  0
 32 31  1  0
 33 32  1  0
 34 33  1  0
 35 34  1  0
 35 30  1  0
M  END
$$$$
