@<TRIPOS>MOLECULE
*****
 35 40 0 0 0
SMALL
GASTEIGER

@<TRIPOS>ATOM
      1 C         -17.3960   11.9000  -36.4350 C.3     1  UNL1        0.0000
      2 C         -18.3760   11.6940  -35.5180 C.3     1  UNL1        0.0001
      3 C         -18.3450   12.3980  -34.2390 C.3     1  UNL1        0.0013
      4 C         -17.3080   13.2680  -33.9990 C.3     1  UNL1        0.0000
      5 C         -16.3320   13.4410  -34.9370 C.3     1  UNL1        0.0000
      6 C         -16.3880   12.7750  -36.1330 C.3     1  UNL1        0.0000
      7 C         -19.3440   12.1770  -33.3190 C.3     1  UNL1        0.0161
      8 C         -20.3880   11.3190  -33.5110 C.3     1  UNL1        0.0623
      9 C         -20.3640   10.6910  -34.7470 C.3     1  UNL1        0.0161
     10 C         -19.4020   10.8450  -35.7290 C.3     1  UNL1        0.0014
     11 N         -21.3340   11.1230  -32.6040 N.3     1  UNL1       -0.2209
     12 C         -21.7130    9.9670  -32.0810 C.3     1  UNL1        0.1525
     13 N         -22.7020   10.2500  -31.2490 N.3     1  UNL1       -0.1285
     14 N         -22.8720   11.5740  -31.2630 N.3     1  UNL1       -0.1633
     15 C         -22.0140   12.0740  -32.0940 C.3     1  UNL1        0.2926
     16 O         -21.8700   13.2810  -32.3970 O.3     1  UNL1       -0.1843
     17 C         -23.9180   11.9890  -30.3460 C.3     1  UNL1        0.0829
     18 C         -25.1120   12.5780  -30.9870 C.3     1  UNL1        0.0497
     19 C         -26.1970   12.5140  -29.9740 C.3     1  UNL1        0.1436
     20 O         -25.8880   13.3920  -28.9400 O.3     1  UNL1       -0.3537
     21 C         -24.6230   13.2110  -28.3240 C.3     1  UNL1        0.1436
     22 C         -23.4830   12.9380  -29.2810 C.3     1  UNL1        0.0497
     23 C         -21.2980    8.5610  -32.2970 C.3     1  UNL1        0.0373
     24 C         -20.0340    8.2450  -32.6630 C.3     1  UNL1        0.0218
     25 C         -19.6930    6.9450  -32.8320 C.3     1  UNL1        0.0903
     26 N         -20.5390    5.9800  -32.6720 N.3     1  UNL1       -0.2023
     27 C         -21.7910    6.2200  -32.3010 C.3     1  UNL1        0.1450
     28 C         -22.1760    7.5250  -32.1070 C.3     1  UNL1        0.0382
     29 N         -22.6050    5.1780  -32.1550 N.3     1  UNL1       -0.2037
     30 C         -23.8990    5.2040  -31.5690 C.3     1  UNL1        0.0743
     31 C         -24.6320    3.9500  -31.9480 C.3     1  UNL1        0.0174
     32 C         -25.9780    3.8970  -31.2740 C.3     1  UNL1        0.0014
     33 C         -25.8950    3.9370  -29.7770 C.3     1  UNL1        0.0001
     34 C         -25.1140    5.1560  -29.3770 C.3     1  UNL1        0.0014
     35 C         -23.7730    5.2590  -30.0680 C.3     1  UNL1        0.0174
@<TRIPOS>BOND
     1     2     1    1
     2     3     2    1
     3     4     3    1
     4     5     4    1
     5     6     1    1
     6     6     5    1
     7     7     3    1
     8     8     7    1
     9     9     8    1
    10    10     9    1
    11    10     2    1
    12    11     8    1
    13    12    11    1
    14    13    12    1
    15    14    13    1
    16    15    14    1
    17    15    11    1
    18    16    15    1
    19    17    14    1
    20    18    17    1
    21    19    18    1
    22    20    19    1
    23    21    20    1
    24    22    21    1
    25    22    17    1
    26    23    12    1
    27    24    23    1
    28    25    24    1
    29    26    25    1
    30    27    26    1
    31    28    27    1
    32    28    23    1
    33    29    27    1
    34    30    29    1
    35    31    30    1
    36    32    31    1
    37    33    32    1
    38    34    33    1
    39    35    34    1
    40    35    30    1
